<?xml version='1.0' encoding='utf-8'?>
<routes><vType id="car" type="passenger" /></routes>