<?xml version="1.0" encoding="UTF-8"?>

<!-- generated on 2025-05-23 11:20:44 by Eclipse SUMO netconvert Version 1.21.0
<netconvertConfiguration xmlns:xsi="http://www.w3.org/2001/XMLSchema-instance" xsi:noNamespaceSchemaLocation="http://sumo.dlr.de/xsd/netconvertConfiguration.xsd">

    <input>
        <opendrive-files value="c:/Users/xh8/ornl_work/github_workspace/Real-Twin-Dev/datasets/chattanooga/output/OpenDrive/chatt.xodr"/>
    </input>

    <output>
        <output-file value="c:/Users/xh8/ornl_work/github_workspace/Real-Twin-Dev/datasets/chattanooga/output/OpenDrive/chatt.net.xml"/>
    </output>

    <junctions>
        <no-internal-links value="true"/>
        <no-turnarounds.except-deadend value="true"/>
    </junctions>

</netconvertConfiguration>
-->

<net version="1.20" junctionCornerDetail="5" rectangularLaneCut="true" limitTurnSpeed="5.50" xmlns:xsi="http://www.w3.org/2001/XMLSchema-instance" xsi:noNamespaceSchemaLocation="http://sumo.dlr.de/xsd/net_file.xsd">

    <location netOffset="-667883.19,-3878704.61" convBoundary="0.00,0.00,1229.89,912.61" origBoundary="0.000000,0.000000,0.000000,0.000000" projParameter="+proj=utm +zone=16 +ellps=WGS84 +datum=WGS84 +units=m +no_defs          

        "/>

    <type id="driving" priority="1" speed="13.89" disallow="pedestrian tram rail_urban rail rail_electric rail_fast ship container cable_car subway aircraft wheelchair scooter drone" width="3.65"/>

    <edge id="-390" from="1" to="2" priority="1" type="driving" shape="896.46,360.64 870.83,371.45">
        <lane id="-390_0" index="0" disallow="pedestrian tram rail_urban rail rail_electric rail_fast ship container cable_car subway aircraft wheelchair scooter drone" speed="15.74" length="47.69" width="3.20" shape="899.57,368.01 873.94,378.82" type="driving"/>
        <lane id="-390_1" index="1" disallow="pedestrian tram rail_urban rail rail_electric rail_fast ship container cable_car subway aircraft wheelchair scooter drone" speed="15.74" length="47.69" width="3.20" shape="898.32,365.06 872.70,375.87" type="driving"/>
        <lane id="-390_2" index="2" disallow="pedestrian tram rail_urban rail rail_electric rail_fast ship container cable_car subway aircraft wheelchair scooter drone" speed="15.74" length="47.69" width="3.20" shape="897.08,362.11 871.45,372.92" type="driving"/>
    </edge>
    <edge id="-391" from="3" to="1" priority="1" type="driving" shape="1229.89,224.84 1127.00,266.64 1125.64,267.21 1037.77,304.28 1036.24,304.93 1034.47,305.67 1032.53,306.49 1030.51,307.33 1026.54,309.02 1023.26,310.39 985.95,326.14 984.42,326.79 982.65,327.53 980.71,328.35 978.69,329.19 974.72,330.88 971.44,332.25 967.21,334.05 965.44,334.79 963.50,335.61 961.48,336.45 957.51,338.14 954.23,339.51 904.99,360.29">
        <lane id="-391_0" index="0" disallow="pedestrian tram rail_urban rail rail_electric rail_fast ship container cable_car subway aircraft wheelchair scooter drone" speed="15.74" length="356.55" width="3.20" shape="1231.70,229.29 1128.81,271.09 1127.50,271.64 1039.64,308.70 1038.10,309.36 1036.33,310.10 1034.39,310.92 1032.38,311.75 1028.41,313.44 1025.12,314.82 987.82,330.56 986.28,331.22 984.51,331.96 982.57,332.78 980.56,333.61 976.59,335.30 973.31,336.67 969.08,338.47 967.30,339.22 965.36,340.04 963.35,340.87 959.38,342.56 956.09,343.94 906.86,364.71" type="driving"/>
        <lane id="-391_1" index="1" disallow="pedestrian tram rail_urban rail rail_electric rail_fast ship container cable_car subway aircraft wheelchair scooter drone" speed="15.74" length="356.55" width="3.20" shape="1230.49,226.32 1127.60,268.12 1126.26,268.69 1038.39,305.76 1036.86,306.41 1035.09,307.15 1033.15,307.97 1031.13,308.81 1027.16,310.50 1023.88,311.87 986.57,327.62 985.04,328.27 983.27,329.01 981.33,329.83 979.31,330.67 975.34,332.36 972.06,333.73 967.83,335.52 966.06,336.27 964.12,337.09 962.10,337.93 958.13,339.62 954.85,340.99 905.61,361.76" type="driving"/>
    </edge>
    <edge id="-392" from="4" to="5" priority="1" type="driving" shape="708.71,442.99 684.82,452.94">
        <lane id="-392_0" index="0" disallow="pedestrian tram rail_urban rail rail_electric rail_fast ship container cable_car subway aircraft wheelchair scooter drone" speed="15.74" length="48.11" width="3.20" shape="711.79,450.38 687.90,460.32" type="driving"/>
        <lane id="-392_1" index="1" disallow="pedestrian tram rail_urban rail rail_electric rail_fast ship container cable_car subway aircraft wheelchair scooter drone" speed="15.74" length="48.11" width="3.20" shape="710.56,447.42 686.67,457.37" type="driving"/>
        <lane id="-392_2" index="2" disallow="pedestrian tram rail_urban rail rail_electric rail_fast ship container cable_car subway aircraft wheelchair scooter drone" speed="15.74" length="48.11" width="3.20" shape="709.33,444.47 685.44,454.41" type="driving"/>
    </edge>
    <edge id="-393" from="4" to="393.end" priority="1" type="driving" shape="711.67,423.81 708.36,416.16">
        <lane id="-393_0" index="0" disallow="pedestrian tram rail_urban rail rail_electric rail_fast ship container cable_car subway aircraft wheelchair scooter drone" speed="23.33" length="23.42" width="3.20" shape="710.20,424.45 706.89,416.80" type="driving"/>
    </edge>
    <edge id="-394" from="4" to="394.end" priority="1" type="driving" shape="723.55,451.49 733.71,475.32 734.36,476.82 735.90,480.42 736.52,481.92 737.11,483.38 737.78,485.05 739.28,488.83 740.08,490.83 740.87,492.82 741.63,494.76 742.36,496.60 743.02,498.27 751.20,518.84">
        <lane id="-394_0" index="0" disallow="pedestrian tram rail_urban rail rail_electric rail_fast ship container cable_car subway aircraft wheelchair scooter drone" speed="23.33" length="87.84" width="3.20" shape="725.02,450.86 735.18,474.69 735.83,476.19 737.37,479.80 738.00,481.32 738.59,482.78 739.27,484.46 740.77,488.24 741.57,490.24 742.36,492.23 743.12,494.17 743.85,496.01 744.51,497.68 752.69,518.25" type="driving"/>
    </edge>
    <edge id="-395" from="4" to="6" priority="1" type="driving" shape="726.59,432.25 748.48,423.02">
        <lane id="-395_0" index="0" disallow="pedestrian tram rail_urban rail rail_electric rail_fast ship container cable_car subway aircraft wheelchair scooter drone" speed="15.74" length="38.93" width="3.20" shape="724.72,427.82 746.62,418.59" type="driving"/>
        <lane id="-395_1" index="1" disallow="pedestrian tram rail_urban rail rail_electric rail_fast ship container cable_car subway aircraft wheelchair scooter drone" speed="15.74" length="38.93" width="3.20" shape="725.96,430.77 747.86,421.54" type="driving"/>
    </edge>
    <edge id="-396" from="6" to="7" priority="1" type="driving" shape="755.86,419.91 763.26,416.78 764.71,416.17 766.43,415.45 768.29,414.66 770.22,413.86 772.08,413.07 773.80,412.35 775.24,411.73 776.65,411.14 778.34,410.43 780.13,409.67 781.83,408.96 783.24,408.36 796.75,402.70">
        <lane id="-396_0" index="0" disallow="pedestrian tram rail_urban rail rail_electric rail_fast ship container cable_car subway aircraft wheelchair scooter drone" speed="15.74" length="56.57" width="3.20" shape="752.75,412.54 760.15,409.41 761.61,408.79 763.32,408.08 765.20,407.28 767.13,406.48 768.97,405.70 770.68,404.99 772.11,404.37 773.56,403.76 775.23,403.06 777.02,402.30 778.72,401.59 780.14,400.98 793.66,395.32" type="driving"/>
        <lane id="-396_1" index="1" disallow="pedestrian tram rail_urban rail rail_electric rail_fast ship container cable_car subway aircraft wheelchair scooter drone" speed="15.74" length="56.57" width="3.20" shape="753.99,415.48 761.39,412.36 762.85,411.75 764.56,411.03 766.43,410.24 768.36,409.44 770.21,408.65 771.93,407.93 773.36,407.31 774.79,406.71 776.47,406.01 778.27,405.25 779.97,404.54 781.38,403.94 794.90,398.27" type="driving"/>
        <lane id="-396_2" index="2" disallow="pedestrian tram rail_urban rail rail_electric rail_fast ship container cable_car subway aircraft wheelchair scooter drone" speed="15.74" length="56.57" width="3.20" shape="755.23,418.43 762.64,415.31 764.09,414.70 765.81,413.98 767.67,413.19 769.60,412.39 771.46,411.60 773.18,410.88 774.61,410.26 776.03,409.67 777.72,408.96 779.51,408.20 781.21,407.49 782.62,406.89 796.13,401.22" type="driving"/>
    </edge>
    <edge id="-397" from="8" to="9" priority="1" type="driving" shape="316.78,610.78 312.91,612.79 311.52,613.54 309.85,614.46 308.18,615.36 306.77,616.07 305.31,616.74 303.59,617.51 301.71,618.35 299.73,619.21 297.76,620.07 295.86,620.87 294.12,621.58 292.62,622.17 239.42,642.43">
        <lane id="-397_0" index="0" disallow="pedestrian tram rail_urban rail rail_electric rail_fast ship container cable_car subway aircraft wheelchair scooter drone" speed="17.90" length="101.28" width="3.20" shape="321.95,620.71 318.12,622.71 316.88,623.37 315.22,624.29 313.37,625.29 311.61,626.17 309.93,626.94 308.16,627.74 306.22,628.60 304.20,629.49 302.15,630.37 300.17,631.21 298.30,631.97 296.66,632.62 243.40,652.90" type="driving"/>
        <lane id="-397_1" index="1" disallow="pedestrian tram rail_urban rail rail_electric rail_fast ship container cable_car subway aircraft wheelchair scooter drone" speed="17.90" length="101.28" width="3.20" shape="320.47,617.87 316.63,619.88 315.35,620.56 313.68,621.48 311.89,622.45 310.23,623.29 308.61,624.03 306.85,624.82 304.93,625.67 302.92,626.55 300.90,627.42 298.94,628.25 297.11,629.00 295.51,629.63 242.27,649.91" type="driving"/>
        <lane id="-397_2" index="2" disallow="pedestrian tram rail_urban rail rail_electric rail_fast ship container cable_car subway aircraft wheelchair scooter drone" speed="17.90" length="101.28" width="3.20" shape="319.00,615.03 315.14,617.04 313.82,617.76 312.15,618.67 310.40,619.62 308.85,620.40 307.29,621.11 305.55,621.90 303.64,622.74 301.65,623.62 299.64,624.48 297.70,625.30 295.91,626.03 294.35,626.65 241.13,646.91" type="driving"/>
        <lane id="-397_3" index="3" disallow="pedestrian tram rail_urban rail rail_electric rail_fast ship container cable_car subway aircraft wheelchair scooter drone" speed="17.90" length="101.28" width="3.20" shape="317.52,612.20 313.65,614.21 312.29,614.95 310.62,615.86 308.92,616.78 307.46,617.51 305.97,618.20 304.24,618.97 302.35,619.81 300.37,620.68 298.39,621.54 296.47,622.34 294.72,623.07 293.20,623.66 239.99,643.92" type="driving"/>
    </edge>
    <edge id="-398" from="10" to="8" priority="1" type="driving" shape="399.99,576.39 393.77,579.06 392.14,579.76 390.50,580.45 386.55,582.13 382.47,583.86 375.82,586.67 372.21,588.17 369.61,589.26 368.41,589.76 366.85,590.42 365.29,591.09 363.67,591.80 362.06,592.51 360.83,593.06 356.89,594.82 355.40,595.49 354.13,596.06 352.34,596.88 350.55,597.72 330.55,607.42 328.97,608.20 327.38,608.97 325.42,609.87">
        <lane id="-398_0" index="0" disallow="pedestrian tram rail_urban rail rail_electric rail_fast ship container cable_car subway aircraft wheelchair scooter drone" speed="17.90" length="96.32" width="3.20" shape="403.15,583.74 396.92,586.41 395.27,587.12 393.63,587.81 389.68,589.50 385.59,591.23 378.92,594.05 375.29,595.56 372.69,596.64 371.52,597.13 369.99,597.78 368.47,598.43 366.89,599.12 365.30,599.83 364.09,600.36 360.16,602.12 358.68,602.78 357.45,603.34 355.70,604.14 353.99,604.94 334.04,614.62 332.48,615.39 330.78,616.21 328.76,617.14" type="driving"/>
        <lane id="-398_1" index="1" disallow="pedestrian tram rail_urban rail rail_electric rail_fast ship container cable_car subway aircraft wheelchair scooter drone" speed="17.90" length="96.32" width="3.20" shape="401.88,580.80 395.66,583.47 394.01,584.17 392.38,584.87 388.43,586.55 384.34,588.28 377.68,591.10 374.06,592.60 371.46,593.69 370.28,594.18 368.73,594.84 367.20,595.50 365.61,596.19 364.00,596.90 362.79,597.44 358.85,599.20 357.37,599.87 356.12,600.43 354.36,601.24 352.62,602.05 332.65,611.74 331.07,612.52 329.42,613.32 327.42,614.24" type="driving"/>
        <lane id="-398_2" index="2" disallow="pedestrian tram rail_urban rail rail_electric rail_fast ship container cable_car subway aircraft wheelchair scooter drone" speed="17.90" length="96.32" width="3.20" shape="400.62,577.86 394.40,580.53 392.76,581.23 391.13,581.92 387.18,583.60 383.09,585.33 376.44,588.15 372.83,589.65 370.22,590.74 369.03,591.24 367.48,591.90 365.93,592.56 364.32,593.26 362.71,593.97 361.48,594.52 357.54,596.28 356.05,596.95 354.79,597.52 353.01,598.34 351.24,599.17 331.25,608.86 329.67,609.64 328.06,610.42 326.09,611.33" type="driving"/>
    </edge>
    <edge id="-399" from="10" to="11" priority="1" type="driving" shape="416.55,565.71 478.15,536.34">
        <lane id="-399_0" index="0" disallow="pedestrian tram rail_urban rail rail_electric rail_fast ship container cable_car subway aircraft wheelchair scooter drone" speed="15.74" length="91.03" width="3.20" shape="410.35,552.71 471.96,523.34" type="driving"/>
        <lane id="-399_1" index="1" disallow="pedestrian tram rail_urban rail rail_electric rail_fast ship container cable_car subway aircraft wheelchair scooter drone" speed="15.74" length="91.03" width="3.20" shape="411.73,555.60 473.33,526.23" type="driving"/>
        <lane id="-399_2" index="2" disallow="pedestrian tram rail_urban rail rail_electric rail_fast ship container cable_car subway aircraft wheelchair scooter drone" speed="15.74" length="91.03" width="3.20" shape="413.11,558.49 474.71,529.12" type="driving"/>
        <lane id="-399_3" index="3" disallow="pedestrian tram rail_urban rail rail_electric rail_fast ship container cable_car subway aircraft wheelchair scooter drone" speed="15.74" length="91.03" width="3.20" shape="414.48,561.38 476.09,532.01" type="driving"/>
        <lane id="-399_4" index="4" disallow="pedestrian tram rail_urban rail rail_electric rail_fast ship container cable_car subway aircraft wheelchair scooter drone" speed="15.74" length="91.03" width="3.20" shape="415.86,564.27 477.47,534.89" type="driving"/>
    </edge>
    <edge id="-400" from="10" to="400.end" priority="1" type="driving" shape="413.42,585.50 414.31,587.59 415.10,589.45 415.86,591.27 416.57,592.93 417.16,594.33 487.00,759.41 487.62,760.86 488.34,762.48 489.13,764.25 490.88,768.06 491.34,769.05 491.80,770.04 493.66,773.94 494.11,774.87 495.41,777.53 496.20,779.11 496.92,780.51 512.02,809.63 512.76,811.01 513.62,812.55 514.60,814.22 515.12,815.10 515.65,815.98 516.20,816.89 516.76,817.80 517.34,818.73 517.92,819.65 518.50,820.57 519.09,821.48 519.67,822.38 520.26,823.27 520.83,824.12 521.40,824.97 522.49,826.57 523.51,828.01 524.45,829.27 586.84,911.40">
        <lane id="-400_0" index="0" disallow="pedestrian tram rail_urban rail rail_electric rail_fast ship container cable_car subway aircraft wheelchair scooter drone" speed="23.33" length="387.47" width="3.20" shape="417.85,583.63 418.73,585.72 419.52,587.59 420.28,589.40 420.99,591.05 421.58,592.46 491.42,757.54 492.02,758.94 492.72,760.53 493.50,762.26 495.24,766.06 495.69,767.03 496.14,767.98 497.99,771.87 498.42,772.76 499.72,775.41 500.48,776.94 501.18,778.31 516.28,807.42 516.97,808.70 517.78,810.16 518.74,811.78 519.25,812.64 519.76,813.50 520.30,814.39 520.84,815.28 521.40,816.18 521.98,817.08 522.55,817.98 523.12,818.88 523.69,819.75 524.26,820.62 524.82,821.45 525.37,822.28 526.43,823.83 527.39,825.19 528.28,826.38 590.66,908.50" type="driving"/>
        <lane id="-400_1" index="1" disallow="pedestrian tram rail_urban rail rail_electric rail_fast ship container cable_car subway aircraft wheelchair scooter drone" speed="23.33" length="387.47" width="3.20" shape="414.90,584.87 415.78,586.97 416.57,588.83 417.33,590.65 418.04,592.31 418.63,593.71 488.47,758.79 489.09,760.22 489.80,761.83 490.59,763.59 492.33,767.39 492.79,768.38 493.25,769.36 495.10,773.25 495.55,774.17 496.85,776.82 497.63,778.39 498.34,779.78 513.44,808.89 514.16,810.24 515.01,811.76 515.98,813.41 516.50,814.28 517.02,815.16 517.57,816.06 518.12,816.96 518.69,817.88 519.27,818.80 519.85,819.71 520.43,820.61 521.01,821.50 521.59,822.39 522.16,823.23 522.72,824.07 523.80,825.66 524.80,827.07 525.73,828.31 588.11,910.43" type="driving"/>
    </edge>
    <edge id="-401" from="9" to="12" priority="1" type="driving" shape="239.45,642.42 291.32,622.81 292.85,622.21 294.60,621.47 295.56,621.06 296.51,620.64 297.52,620.20 298.52,619.75 299.54,619.29 302.55,617.92 304.44,617.05 307.66,615.56 308.93,614.94 310.45,614.15 311.96,613.36 313.22,612.71 314.69,611.97 316.39,611.11 317.58,610.52">
        <lane id="-401_0" index="0" disallow="pedestrian tram rail_urban rail rail_electric rail_fast ship container cable_car subway aircraft wheelchair scooter drone" speed="17.90" length="102.33" width="3.20" shape="237.75,637.93 289.62,618.32 291.03,617.77 292.72,617.06 293.64,616.66 294.58,616.25 295.57,615.81 296.56,615.37 297.55,614.92 300.56,613.56 302.43,612.69 305.62,611.22 306.77,610.66 308.23,609.90 309.75,609.10 311.04,608.43 312.53,607.69 314.24,606.82 315.44,606.22" type="driving"/>
        <lane id="-401_1" index="1" disallow="pedestrian tram rail_urban rail rail_electric rail_fast ship container cable_car subway aircraft wheelchair scooter drone" speed="17.90" length="102.33" width="3.20" shape="238.88,640.93 290.75,621.32 292.25,620.73 293.97,620.00 294.92,619.59 295.87,619.18 296.87,618.73 297.87,618.29 298.87,617.84 301.89,616.47 303.77,615.60 306.98,614.11 308.21,613.51 309.71,612.73 311.22,611.94 312.49,611.29 313.97,610.54 315.67,609.68 316.87,609.09" type="driving"/>
    </edge>
    <edge id="-402" from="12" to="10" priority="1" type="driving" shape="326.17,609.80 327.46,609.16 329.17,608.32 349.19,598.59 350.65,597.90 352.33,597.11 353.27,596.68 354.21,596.24 355.20,595.79 358.24,594.42 361.18,593.11 362.13,592.69 363.86,591.94 365.37,591.28 366.79,590.65 372.28,588.34 373.22,587.95 375.90,586.84 377.36,586.23 378.88,585.59 382.55,584.04 388.66,581.45 390.58,580.63 392.33,579.89 393.84,579.24 400.07,576.57">
        <lane id="-402_0" index="0" disallow="pedestrian tram rail_urban rail rail_electric rail_fast ship container cable_car subway aircraft wheelchair scooter drone" speed="17.90" length="95.38" width="3.20" shape="322.61,602.64 323.92,601.99 325.67,601.13 345.70,591.39 347.24,590.66 348.94,589.87 349.91,589.41 350.88,588.97 351.91,588.50 354.97,587.12 357.93,585.80 358.93,585.36 360.67,584.61 362.15,583.96 363.62,583.31 369.18,580.97 370.16,580.56 372.83,579.45 374.27,578.85 375.77,578.22 379.43,576.67 385.53,574.09 387.45,573.27 389.19,572.53 390.68,571.89 396.91,569.22" type="driving"/>
        <lane id="-402_1" index="1" disallow="pedestrian tram rail_urban rail rail_electric rail_fast ship container cable_car subway aircraft wheelchair scooter drone" speed="17.90" length="95.38" width="3.20" shape="324.03,605.51 325.33,604.86 327.07,604.01 347.09,594.27 348.60,593.56 350.29,592.76 351.25,592.32 352.21,591.88 353.23,591.42 356.28,590.04 359.23,588.72 360.21,588.29 361.94,587.54 363.44,586.89 364.89,586.25 370.42,583.92 371.38,583.52 374.06,582.41 375.50,581.81 377.01,581.17 380.68,579.62 386.78,577.03 388.70,576.21 390.45,575.48 391.95,574.83 398.17,572.16" type="driving"/>
        <lane id="-402_2" index="2" disallow="pedestrian tram rail_urban rail rail_electric rail_fast ship container cable_car subway aircraft wheelchair scooter drone" speed="17.90" length="95.38" width="3.20" shape="325.46,608.37 326.75,607.73 328.47,606.88 348.49,597.15 349.97,596.45 351.65,595.66 352.60,595.22 353.54,594.79 354.55,594.33 357.59,592.96 360.53,591.65 361.49,591.23 363.22,590.47 364.73,589.82 366.16,589.18 371.66,586.87 372.61,586.47 375.29,585.36 376.74,584.76 378.26,584.12 381.93,582.57 388.03,579.98 389.95,579.16 391.70,578.42 393.21,577.77 399.44,575.10" type="driving"/>
    </edge>
    <edge id="-403" from="9" to="403.end" priority="1" type="driving" shape="218.15,636.04 217.45,634.97 216.60,633.64 215.68,632.13 214.70,630.47 214.19,629.58 213.69,628.69 213.17,627.76 212.65,626.82 212.13,625.87 211.62,624.91 211.11,623.95 210.60,622.99 210.11,622.04 209.62,621.09 209.16,620.18 208.70,619.26 207.85,617.52 207.10,615.92 206.47,614.48 126.18,425.89 125.55,424.46 124.81,422.85 123.98,421.10 123.53,420.18 123.08,419.25 122.61,418.30 122.13,417.34 121.64,416.37 121.14,415.40 120.64,414.44 120.14,413.47 119.64,412.53 119.14,411.58 118.66,410.68 118.17,409.77 117.23,408.08 116.35,406.55 115.55,405.20 96.18,373.36">
        <lane id="-403_0" index="0" disallow="pedestrian tram rail_urban rail rail_electric rail_fast ship container cable_car subway aircraft wheelchair scooter drone" speed="23.33" length="307.13" width="3.20" shape="214.13,638.67 213.42,637.58 212.53,636.18 211.56,634.60 210.55,632.89 210.02,631.95 209.50,631.04 208.97,630.09 208.44,629.13 207.91,628.15 207.39,627.18 206.87,626.20 206.35,625.22 205.84,624.24 205.34,623.27 204.87,622.33 204.39,621.38 203.52,619.60 202.73,617.91 202.06,616.38 121.76,427.77 121.17,426.43 120.46,424.88 119.65,423.17 119.22,422.28 118.77,421.37 118.31,420.43 117.84,419.50 117.36,418.55 116.87,417.60 116.38,416.64 115.89,415.70 115.40,414.77 114.90,413.84 114.43,412.94 113.96,412.08 113.05,410.44 112.20,408.97 111.43,407.67 92.08,375.86" type="driving"/>
        <lane id="-403_1" index="1" disallow="pedestrian tram rail_urban rail rail_electric rail_fast ship container cable_car subway aircraft wheelchair scooter drone" speed="23.33" length="307.13" width="3.20" shape="216.81,636.92 216.11,635.84 215.24,634.49 214.31,632.95 213.32,631.28 212.80,630.37 212.29,629.47 211.77,628.54 211.25,627.59 210.73,626.63 210.21,625.67 209.70,624.70 209.18,623.73 208.69,622.78 208.19,621.82 207.73,620.90 207.26,619.97 206.41,618.21 205.64,616.58 205.00,615.12 124.71,426.52 124.09,425.12 123.36,423.53 122.54,421.79 122.09,420.88 121.64,419.96 121.17,419.01 120.70,418.06 120.21,417.10 119.72,416.13 119.22,415.17 118.72,414.21 118.23,413.27 117.73,412.33 117.25,411.43 116.77,410.54 115.84,408.87 114.97,407.36 114.18,406.03 94.81,374.19" type="driving"/>
    </edge>
    <edge id="-404" from="9" to="13" priority="1" type="driving" shape="214.45,651.81 196.39,658.50">
        <lane id="-404_0" index="0" disallow="pedestrian tram rail_urban rail rail_electric rail_fast ship container cable_car subway aircraft wheelchair scooter drone" speed="20.25" length="40.05" width="3.20" shape="217.23,659.31 199.17,666.00" type="driving"/>
        <lane id="-404_1" index="1" disallow="pedestrian tram rail_urban rail rail_electric rail_fast ship container cable_car subway aircraft wheelchair scooter drone" speed="20.25" length="40.05" width="3.20" shape="216.12,656.31 198.06,663.00" type="driving"/>
        <lane id="-404_2" index="2" disallow="pedestrian tram rail_urban rail rail_electric rail_fast ship container cable_car subway aircraft wheelchair scooter drone" speed="20.25" length="40.05" width="3.20" shape="215.01,653.31 196.95,660.00" type="driving"/>
    </edge>
    <edge id="-405" from="405.begin" to="405.end" priority="1" type="driving" shape="529.51,870.06 462.96,787.27 461.99,786.06 460.90,784.73 459.72,783.28 458.46,781.74 457.14,780.14 455.79,778.49 454.41,776.82 451.66,773.51 450.33,771.92 449.05,770.40 447.85,768.96 445.74,766.47 328.09,628.54 325.97,626.06 323.46,623.12 322.12,621.54 320.73,619.92 319.33,618.27 317.92,616.62 316.54,615.00 313.90,611.91 312.69,610.48 310.57,608.00 280.77,573.07 278.65,570.59 277.44,569.17 276.14,567.66 274.79,566.08 273.41,564.46 272.00,562.81 270.59,561.17 269.20,559.55 266.56,556.46 265.34,555.04 263.21,552.57 103.66,366.95">
        <lane id="-405_0" index="0" disallow="pedestrian tram rail_urban rail rail_electric rail_fast ship container cable_car subway aircraft wheelchair scooter drone" speed="27.00" length="659.19" width="3.20" shape="523.27,875.07 456.72,792.28 455.78,791.10 454.70,789.79 453.52,788.34 452.28,786.82 450.96,785.22 449.61,783.57 448.25,781.93 445.51,778.63 444.20,777.06 442.92,775.54 441.73,774.12 439.65,771.65 322.00,633.73 319.89,631.26 317.37,628.31 316.03,626.73 314.64,625.11 313.24,623.46 311.83,621.81 310.46,620.20 307.81,617.10 306.60,615.67 304.48,613.19 274.68,578.26 272.57,575.79 271.36,574.38 270.07,572.87 268.70,571.27 267.32,569.65 265.93,568.02 264.52,566.38 263.12,564.75 260.48,561.66 259.28,560.26 257.15,557.79 97.59,372.17" type="driving"/>
        <lane id="-405_1" index="1" disallow="pedestrian tram rail_urban rail rail_electric rail_fast ship container cable_car subway aircraft wheelchair scooter drone" speed="27.00" length="659.19" width="3.20" shape="525.77,873.07 459.22,790.28 458.26,789.08 457.18,787.77 456.00,786.32 454.75,784.79 453.43,783.19 452.08,781.54 450.72,779.89 447.97,776.58 446.65,775.01 445.37,773.48 444.18,772.05 442.08,769.58 324.44,631.66 322.32,629.18 319.81,626.23 318.47,624.66 317.08,623.04 315.68,621.38 314.27,619.74 312.89,618.12 310.25,615.02 309.04,613.59 306.92,611.12 277.12,576.19 275.00,573.71 273.79,572.29 272.50,570.79 271.14,569.20 269.76,567.58 268.36,565.94 266.95,564.30 265.55,562.67 262.91,559.58 261.70,558.17 259.57,555.70 100.02,370.08" type="driving"/>
        <lane id="-405_2" index="2" disallow="pedestrian tram rail_urban rail rail_electric rail_fast ship container cable_car subway aircraft wheelchair scooter drone" speed="27.00" length="659.19" width="3.20" shape="528.26,871.06 461.71,788.27 460.75,787.07 459.66,785.74 458.48,784.29 457.22,782.76 455.90,781.16 454.55,779.51 453.18,777.84 450.43,774.54 449.10,772.95 447.82,771.43 446.63,769.99 444.52,767.51 326.87,629.58 324.75,627.10 322.24,624.16 320.90,622.58 319.51,620.96 318.11,619.31 316.70,617.66 315.32,616.04 312.68,612.95 311.47,611.52 309.35,609.04 279.55,574.11 277.43,571.63 276.22,570.21 274.93,568.70 273.57,567.12 272.19,565.50 270.79,563.85 269.38,562.21 267.98,560.59 265.34,557.50 264.13,556.09 262.00,553.62 102.45,367.99" type="driving"/>
    </edge>
    <edge id="-406" from="406.begin" to="9" priority="1" type="driving" shape="521.88,876.21 492.47,848.28 491.33,847.21 488.61,844.68 487.85,843.99 483.90,840.38 483.09,839.65 480.69,837.49 477.70,834.83 476.37,833.66 475.18,832.63 433.87,796.96 432.67,795.94 431.31,794.80 429.82,793.57 429.02,792.92 428.22,792.27 426.55,790.94 424.85,789.58 423.99,788.91 422.29,787.58 421.45,786.92 420.64,786.29 419.82,785.66 418.27,784.49 416.85,783.43 415.59,782.50 322.04,714.91 320.77,713.99 319.33,712.95 317.76,711.82 316.09,710.61 309.09,705.55 307.42,704.35 305.85,703.21 304.41,702.17 303.13,701.25 243.48,658.16">
        <lane id="-406_0" index="0" disallow="pedestrian tram rail_urban rail rail_electric rail_fast ship container cable_car subway aircraft wheelchair scooter drone" speed="23.33" length="371.39" width="3.20" shape="516.37,882.01 486.96,854.08 485.87,853.06 483.17,850.55 482.46,849.89 478.51,846.30 477.74,845.60 475.36,843.46 472.39,840.82 471.11,839.69 469.95,838.69 428.64,803.02 427.51,802.06 426.19,800.95 424.74,799.75 423.98,799.13 423.22,798.52 421.56,797.19 419.87,795.84 419.06,795.20 417.37,793.88 416.54,793.24 415.74,792.62 414.98,792.03 413.47,790.89 412.08,789.85 410.87,788.96 317.35,721.40 316.08,720.47 314.65,719.44 313.08,718.31 311.40,717.09 304.41,712.04 302.74,710.84 301.16,709.69 299.73,708.66 298.45,707.74 238.79,664.64" type="driving"/>
        <lane id="-406_1" index="1" disallow="pedestrian tram rail_urban rail rail_electric rail_fast ship container cable_car subway aircraft wheelchair scooter drone" speed="23.33" length="371.39" width="3.20" shape="518.57,879.69 489.17,851.76 488.06,850.72 485.35,848.20 484.61,847.53 480.67,843.93 479.88,843.22 477.49,841.07 474.52,838.42 473.21,837.28 472.04,836.26 430.73,800.60 429.57,799.61 428.24,798.49 426.77,797.28 425.99,796.65 425.22,796.02 423.56,794.69 421.86,793.34 421.03,792.68 419.34,791.36 418.50,790.71 417.70,790.09 416.91,789.48 415.39,788.33 413.99,787.29 412.76,786.38 319.23,718.80 317.96,717.88 316.52,716.85 314.95,715.71 313.28,714.50 306.28,709.44 304.61,708.24 303.03,707.10 301.60,706.07 300.32,705.15 240.67,662.05" type="driving"/>
        <lane id="-406_2" index="2" disallow="pedestrian tram rail_urban rail rail_electric rail_fast ship container cable_car subway aircraft wheelchair scooter drone" speed="23.33" length="371.39" width="3.20" shape="520.78,877.37 491.37,849.44 490.24,848.38 487.52,845.85 486.77,845.17 482.82,841.56 482.02,840.84 479.62,838.68 476.64,836.03 475.32,834.87 474.13,833.84 432.82,798.17 431.64,797.16 430.29,796.03 428.80,794.81 428.01,794.16 427.22,793.52 425.55,792.19 423.85,790.83 423.00,790.16 421.31,788.84 420.47,788.18 419.66,787.56 418.85,786.94 417.31,785.77 415.90,784.72 414.65,783.79 321.10,716.21 319.83,715.29 318.39,714.25 316.82,713.12 315.15,711.91 308.15,706.85 306.48,705.65 304.91,704.51 303.47,703.47 302.19,702.55 242.54,659.45" type="driving"/>
    </edge>
    <edge id="-407" from="14" to="13" priority="1" type="driving" shape="120.56,689.00 131.83,684.43 133.22,683.87 134.80,683.23 138.38,681.79 140.26,681.02 142.15,680.26 143.99,679.51 145.73,678.81 147.31,678.17 148.69,677.60 150.16,677.01 151.89,676.31 153.78,675.54 155.72,674.76 157.61,673.99 159.34,673.29 160.80,672.69 183.16,663.63">
        <lane id="-407_0" index="0" disallow="pedestrian tram rail_urban rail rail_electric rail_fast ship container cable_car subway aircraft wheelchair scooter drone" speed="20.25" length="86.13" width="3.20" shape="118.76,684.55 130.03,679.98 131.42,679.42 133.01,678.78 136.58,677.34 138.45,676.57 140.35,675.81 142.19,675.06 143.93,674.36 145.49,673.73 146.88,673.16 148.37,672.56 150.08,671.86 151.98,671.09 153.92,670.31 155.80,669.54 157.53,668.85 158.99,668.25 181.36,659.18" type="driving"/>