<?xml version="1.0" encoding="UTF-8"?>

<!-- generated on 2025-05-23 12:58:39 by Eclipse SUMO netconvert Version 1.21.0
<netconvertConfiguration xmlns:xsi="http://www.w3.org/2001/XMLSchema-instance" xsi:noNamespaceSchemaLocation="http://sumo.dlr.de/xsd/netconvertConfiguration.xsd">

    <input>
        <sumo-net-file value="c:/Users/xh8/ornl_work/github_workspace/Real-Twin-Dev/datasets/chattanooga/output/OpenDrive/chatt.net.xml"/>
    </input>

    <output>
        <opendrive-output value="c:/Users/xh8/ornl_work/github_workspace/Real-Twin-Dev/datasets/chattanooga/output/OpenDrive/chatt.xodr"/>
    </output>

    <processing>
        <geometry.min-radius.fix.railways value="false"/>
        <geometry.max-grade.fix value="false"/>
        <offset.disable-normalization value="true"/>
        <lefthand value="0"/>
    </processing>

    <junctions>
        <no-turnarounds value="true"/>
        <junctions.corner-detail value="5"/>
        <junctions.limit-turn-speed value="5.50"/>
    </junctions>

    <pedestrian>
        <walkingareas value="0"/>
    </pedestrian>

</netconvertConfiguration>
-->

<OpenDRIVE>
    <header revMajor="1" revMinor="4" name="" version="1.00" date="Fri May 23 12:58:39 2025" north="912.75" south="0.00" east="1380.08" west="150.19">
        <geoReference>
 <![CDATA[
 +proj=utm +zone=16 +ellps=WGS84 +datum=WGS84 +units=m +no_defs          
]]>
        </geoReference>
        <offset x="-667733.00" y="-3878704.47" z="0.00" hdg="0"/>
    </header>
    <road name="" length="27.81491241" id="390" junction="-1">
        <link>
            <predecessor elementType="junction" elementId="1"/>
            <successor elementType="junction" elementId="2"/>
        </link>
        <type s="0" type="town"/>
        <planView>
            <geometry s="0.00000000" x="1046.64702376" y="360.77379128" hdg="2.74236366" length="27.81491241">
                <line/>
            </geometry>
        </planView>
        <elevationProfile>
            <elevation s="0" a="0.00" b="0" c="0" d="0"/>
        </elevationProfile>
        <lateralProfile/>
        <lanes>
            <laneSection s="0">
                <center>
                    <lane id="0" type="none" level="true">
                        <link/>
                        <roadMark sOffset="0" type="solid" weight="standard" color="standard" width="0.13"/>
                    </lane>
                </center>
                <right>
                    <lane id="-1" type="driving" level="true">
                        <link/>
                        <width sOffset="0" a="3.20" b="0" c="0" d="0"/>
                        <roadMark sOffset="0" type="broken" weight="standard" color="standard" width="0.13"/>
                        <speed sOffset="0" max="15.74"/>
                    </lane>
                    <lane id="-2" type="driving" level="true">
                        <link/>
                        <width sOffset="0" a="3.20" b="0" c="0" d="0"/>
                        <roadMark sOffset="0" type="broken" weight="standard" color="standard" width="0.13"/>
                        <speed sOffset="0" max="15.74"/>
                    </lane>
                    <lane id="-3" type="driving" level="true">
                        <link/>
                        <width sOffset="0" a="3.20" b="0" c="0" d="0"/>
                        <roadMark sOffset="0" type="solid" weight="standard" color="standard" width="0.13"/>
                        <speed sOffset="0" max="15.74"/>
                    </lane>
                 </right>
            </laneSection>
        </lanes>
        <objects/>
        <signals>
            <signal id="2_5" s="27.81491241" t="-8.00000000" orientation="+" dynamic="yes" zOffset="5" country="OpenDRIVE" type="1000011" subtype="20" height="0.78000000" width="0.26000000">
                <validity fromLane="-3" toLane="-3"/>
            </signal>
            <signal id="2_6" s="27.81491241" t="-8.00000000" orientation="+" dynamic="yes" zOffset="5" country="OpenDRIVE" type="1000011" subtype="30" height="0.78000000" width="0.26000000">
                <validity fromLane="-3" toLane="-3"/>
            </signal>
            <signal id="2_7" s="27.81491241" t="-4.80000000" orientation="+" dynamic="yes" zOffset="5" country="OpenDRIVE" type="1000011" subtype="30" height="0.78000000" width="0.26000000">
                <validity fromLane="-2" toLane="-2"/>
            </signal>
            <signal id="2_8" s="27.81491241" t="-1.60000000" orientation="+" dynamic="yes" zOffset="5" country="OpenDRIVE" type="1000011" subtype="10" height="0.78000000" width="0.26000000">
                <validity fromLane="-1" toLane="-1"/>
            </signal>
            <signal id="2_9" s="27.81491241" t="-1.60000000" orientation="+" dynamic="yes" zOffset="5" country="OpenDRIVE" type="1000001" subtype="-1" height="0.78000000" width="0.26000000">
                <validity fromLane="-1" toLane="-1"/>
            </signal>
        </signals>
    </road>
    <road name="" length="352.00663368" id="391" junction="-1">
        <link>
            <predecessor elementType="junction" elementId="3"/>
            <successor elementType="junction" elementId="1"/>
        </link>
        <type s="0" type="town"/>
        <planView>
            <geometry s="0.00000000" x="1380.08000000" y="224.98000000" hdg="2.75570216" length="111.05670506">
                <line/>
            </geometry>
            <geometry s="111.05670506" x="1277.19000151" y="266.77999939" hdg="2.75570216" length="1.47468035">
                <paramPoly3 aU="0.00000000" bU="1.10600394" cU="1.10583515" dU="-0.73725618" aV="-0.00000000" bV="0.00000000" cV="-0.03386573" dV="0.01766341" pRange="normalized"/>
            </geometry>
            <geometry s="112.53138541" x="1275.82995236" y="267.35002010" hdg="2.74237339" length="95.36934485">
                <line/>
            </geometry>
            <geometry s="207.90073027" x="1187.96000000" y="304.42000000" hdg="2.74237339" length="1.66234851">
                <paramPoly3 aU="0.00000000" bU="1.24676080" cU="1.24674525" dU="-0.83116357" aV="-0.00000000" bV="0.00000000" cV="-0.01323219" dV="0.00905475" pRange="normalized"/>
            </geometry>
            <geometry s="209.56307878" x="1186.43000001" y="305.07000000" hdg="2.74293474" length="1.91846331">
                <paramPoly3 aU="0.00000000" bU="1.43884700" cU="1.43882686" dU="-0.95921799" aV="-0.00000000" bV="0.00000000" cV="0.01444320" dV="-0.00933261" pRange="normalized"/>
            </geometry>
            <geometry s="211.48154209" x="1184.66000024" y="305.80999990" hdg="2.74355231" length="2.10618224">
                <paramPoly3 aU="0.00000000" bU="1.57963609" cU="1.57962607" dU="-1.05308436" aV="-0.00000000" bV="0.00000000" cV="-0.01351421" dV="0.00958839" pRange="normalized"/>
            </geometry>
            <geometry s="213.58772433" x="1182.72000018" y="306.62999993" hdg="2.74465177" length="2.18769024">
                <paramPoly3 aU="0.00000000" bU="1.64076640" cU="1.64074120" dU="-1.09382797" aV="-0.00000000" bV="-0.00000000" cV="0.02095625" dV="-0.01471478" pRange="normalized"/>
            </geometry>
            <geometry s="215.77541456" x="1180.70000416" y="307.46999825" hdg="2.74329154" length="2.19545820">
                <paramPoly3 aU="0.00000000" bU="1.64659248" cU="1.64654865" dU="-1.09770384" aV="-0.00000000" bV="0.00000000" cV="-0.02080826" dV="0.01159104" pRange="normalized"/>
            </geometry>
            <geometry s="217.97087277" x="1178.67999790" y="308.33000090" hdg="2.73913544" length="2.11928954">
                <paramPoly3 aU="0.00000000" bU="1.58946655" cU="1.58947415" dU="-1.05965197" aV="-0.00000000" bV="-0.00000000" cV="-0.00463946" dV="0.00473215" pRange="normalized"/>
            </geometry>
            <geometry s="220.09016231" x="1176.73000121" y="309.15999949" hdg="2.74222927" length="1.91847067">
                <paramPoly3 aU="0.00000000" bU="1.43885229" cU="1.43882951" dU="-0.95922297" aV="-0.00000000" bV="-0.00000000" cV="0.01405878" dV="-0.00759475" pRange="normalized"/>
            </geometry>
            <geometry s="222.00863298" x="1174.95999494" y="309.90000211" hdg="2.74593592" length="1.63614972">
                <paramPoly3 aU="0.00000000" bU="1.22711145" cU="1.22711987" dU="-0.81808285" aV="-0.00000000" bV="-0.00000000" cV="0.00658942" dV="-0.00594237" pRange="normalized"/>
            </geometry>
            <geometry s="223.64478270" x="1173.44999994" y="310.53000002" hdg="2.74214793" length="40.49813075">
                <line/>
            </geometry>
            <geometry s="264.14291345" x="1136.14000001" y="326.28000000" hdg="2.74214793" length="1.66234862">
                <paramPoly3 aU="0.00000000" bU="1.24676092" cU="1.24674825" dU="-0.83116563" aV="-0.00000000" bV="-0.00000000" cV="-0.01238890" dV="0.00858626" pRange="normalized"/>
            </geometry>
            <geometry s="265.80526206" x="1134.60999987" y="326.93000005" hdg="2.74293474" length="1.91846317">
                <paramPoly3 aU="0.00000000" bU="1.43884689" cU="1.43882675" dU="-0.95921792" aV="-0.00000000" bV="-0.00000000" cV="0.01444320" dV="-0.00933261" pRange="normalized"/>
            </geometry>
            <geometry s="267.72372523" x="1132.84000024" y="327.66999990" hdg="2.74355231" length="2.10618224">
                <paramPoly3 aU="0.00000000" bU="1.57963609" cU="1.57962607" dU="-1.05308436" aV="-0.00000000" bV="0.00000000" cV="-0.01351421" dV="0.00958839" pRange="normalized"/>
            </geometry>
            <geometry s="269.82990747" x="1130.90000018" y="328.48999993" hdg="2.74465177" length="2.18769024">
                <paramPoly3 aU="0.00000000" bU="1.64076640" cU="1.64074120" dU="-1.09382797" aV="-0.00000000" bV="-0.00000000" cV="0.02095625" dV="-0.01471478" pRange="normalized"/>
            </geometry>
            <geometry s="272.01759770" x="1128.88000416" y="329.32999825" hdg="2.74329154" length="2.19545820">
                <paramPoly3 aU="0.00000000" bU="1.64659248" cU="1.64654865" dU="-1.09770384" aV="-0.00000000" bV="0.00000000" cV="-0.02080826" dV="0.01159104" pRange="normalized"/>
            </geometry>
            <geometry s="274.21305591" x="1126.85999790" y="330.19000090" hdg="2.73913544" length="2.11928954">
                <paramPoly3 aU="0.00000000" bU="1.58946655" cU="1.58947415" dU="-1.05965197" aV="-0.00000000" bV="0.00000000" cV="-0.00463945" dV="0.00473215" pRange="normalized"/>
            </geometry>
            <geometry s="276.33234545" x="1124.91000121" y="331.01999949" hdg="2.74222927" length="1.91846718">
                <paramPoly3 aU="0.00000000" bU="1.43884968" cU="1.43882689" dU="-0.95922122" aV="-0.00000000" bV="0.00000000" cV="0.01405876" dV="-0.00759474" pRange="normalized"/>
            </geometry>
            <geometry s="278.25081263" x="1123.13999816" y="331.76000077" hdg="2.74593592" length="1.63614903">
                <paramPoly3 aU="0.00000000" bU="1.22711127" cU="1.22711592" dU="-0.81807896" aV="-0.00000000" bV="-0.00000000" cV="0.00545772" dV="-0.00481067" pRange="normalized"/>
            </geometry>
            <geometry s="279.88696165" x="1121.63000339" y="332.38999857" hdg="2.74307020" length="1.45620565">
                <paramPoly3 aU="0.00000000" bU="1.09215359" cU="1.09213358" dU="-0.72809216" aV="-0.00000000" bV="-0.00000000" cV="-0.01149442" dV="0.00615862" pRange="normalized"/>
            </geometry>
            <geometry s="281.34316730" x="1120.28999316" y="332.96000291" hdg="2.73893800" length="1.47849975">
                <paramPoly3 aU="0.00000000" bU="1.10887479" cU="1.10887436" dU="-0.73924959" aV="-0.00000000" bV="-0.00000000" cV="-0.00234528" dV="0.00166377" pRange="normalized"/>
            </geometry>
            <geometry s="282.82166705" x="1118.93000517" y="333.53999780" hdg="2.73920923" length="1.66235891">
                <paramPoly3 aU="0.00000000" bU="1.24676863" cU="1.24677622" dU="-0.83118703" aV="-0.00000000" bV="-0.00000000" cV="-0.00139729" dV="0.00247981" pRange="normalized"/>
            </geometry>
            <geometry s="284.48402596" x="1117.39999556" y="334.19000187" hdg="2.74293474" length="1.91845849">
                <paramPoly3 aU="0.00000000" bU="1.43884339" cU="1.43882324" dU="-0.95921558" aV="-0.00000000" bV="-0.00000000" cV="0.01444323" dV="-0.00933262" pRange="normalized"/>
            </geometry>
            <geometry s="286.40248445" x="1115.63000024" y="334.92999990" hdg="2.74355231" length="2.10618224">
                <paramPoly3 aU="0.00000000" bU="1.57963609" cU="1.57962607" dU="-1.05308436" aV="-0.00000000" bV="-0.00000000" cV="-0.01351421" dV="0.00958839" pRange="normalized"/>
            </geometry>
            <geometry s="288.50866669" x="1113.69000018" y="335.74999993" hdg="2.74465177" length="2.18769024">
                <paramPoly3 aU="0.00000000" bU="1.64076640" cU="1.64074120" dU="-1.09382797" aV="-0.00000000" bV="-0.00000000" cV="0.02095625" dV="-0.01471478" pRange="normalized"/>
            </geometry>
            <geometry s="290.69635693" x="1111.67000416" y="336.58999825" hdg="2.74329154" length="2.19545820">
                <paramPoly3 aU="0.00000000" bU="1.64659248" cU="1.64654865" dU="-1.09770384" aV="-0.00000000" bV="0.00000000" cV="-0.02080826" dV="0.01159104" pRange="normalized"/>
            </geometry>
            <geometry s="292.89181513" x="1109.64999790" y="337.45000090" hdg="2.73913544" length="2.11928954">
                <paramPoly3 aU="0.00000000" bU="1.58946655" cU="1.58947415" dU="-1.05965197" aV="-0.00000000" bV="-0.00000000" cV="-0.00463946" dV="0.00473215" pRange="normalized"/>
            </geometry>
            <geometry s="295.01110467" x="1107.70000121" y="338.27999949" hdg="2.74222927" length="1.91847065">
                <paramPoly3 aU="0.00000000" bU="1.43885228" cU="1.43882949" dU="-0.95922296" aV="-0.00000000" bV="-0.00000000" cV="0.01405878" dV="-0.00759475" pRange="normalized"/>
            </geometry>
            <geometry s="296.92957532" x="1105.92999496" y="339.02000210" hdg="2.74593592" length="1.63614966">
                <paramPoly3 aU="0.00000000" bU="1.22711147" cU="1.22711919" dU="-0.81808216" aV="-0.00000000" bV="0.00000000" cV="0.00640072" dV="-0.00575367" pRange="normalized"/>
            </geometry>
            <geometry s="298.56572498" x="1104.41999994" y="339.65000002" hdg="2.74230170" length="53.44090870">
                <line/>
            </geometry>
        </planView>
        <elevationProfile>
            <elevation s="0" a="0.00" b="0" c="0" d="0"/>
        </elevationProfile>
        <lateralProfile/>
        <lanes>
            <laneSection s="0">
                <center>
                    <lane id="0" type="none" level="true">
                        <link/>
                        <roadMark sOffset="0" type="solid" weight="standard" color="standard" width="0.13"/>
                    </lane>
                </center>
                <right>
                    <lane id="-1" type="driving" level="true">
                        <link/>
                        <width sOffset="0" a="3.20" b="0" c="0" d="0"/>
                        <roadMark sOffset="0" type="broken" weight="standard" color="standard" width="0.13"/>
                        <speed sOffset="0" max="15.74"/>
                    </lane>
                    <lane id="-2" type="driving" level="true">
                        <link/>
                        <width sOffset="0" a="3.20" b="0" c="0" d="0"/>
                        <roadMark sOffset="0" type="solid" weight="standard" color="standard" width="0.13"/>
                        <speed sOffset="0" max="15.74"/>
                    </lane>
                 </right>
            </laneSection>
        </lanes>
        <objects/>
        <signals/>
    </road>
    <road name="" length="25.87715490" id="392" junction="-1">
        <link>
            <predecessor elementType="junction" elementId="4"/>
            <successor elementType="junction" elementId="5"/>
        </link>
        <type s="0" type="town"/>
        <planView>
            <geometry s="0.00000000" x="858.90216718" y="443.13205131" hdg="2.74717482" length="25.87715490">
                <line/>
            </geometry>
        </planView>
        <elevationProfile>
            <elevation s="0" a="0.00" b="0" c="0" d="0"/>
        </elevationProfile>
        <lateralProfile/>
        <lanes>
            <laneSection s="0">
                <center>
                    <lane id="0" type="none" level="true">
                        <link/>
                        <roadMark sOffset="0" type="solid" weight="standard" color="standard" width="0.13"/>
                    </lane>
                </center>
                <right>
                    <lane id="-1" type="driving" level="true">
                        <link/>
                        <width sOffset="0" a="3.20" b="0" c="0" d="0"/>
                        <roadMark sOffset="0" type="broken" weight="standard" color="standard" width="0.13"/>
                        <speed sOffset="0" max="15.74"/>
                    </lane>
                    <lane id="-2" type="driving" level="true">
                        <link/>
                        <width sOffset="0" a="3.20" b="0" c="0" d="0"/>
                        <roadMark sOffset="0" type="broken" weight="standard" color="standard" width="0.13"/>
                        <speed sOffset="0" max="15.74"/>
                    </lane>
                    <lane id="-3" type="driving" level="true">
                        <link/>
                        <width sOffset="0" a="3.20" b="0" c="0" d="0"/>
                        <roadMark sOffset="0" type="solid" weight="standard" color="standard" width="0.13"/>
                        <speed sOffset="0" max="15.74"/>
                    </lane>
                 </right>
            </laneSection>
        </lanes>
        <objects/>
        <signals/>
    </road>
    <road name="" length="8.33287794" id="393" junction="-1">
        <link>
            <predecessor elementType="junction" elementId="4"/>
        </link>
        <type s="0" type="town"/>
        <planView>
            <geometry s="0.00000000" x="861.86000000" y="423.95000000" hdg="-1.97901152" length="8.33287794">
                <line/>
            </geometry>
        </planView>
        <elevationProfile>
            <elevation s="0" a="0.00" b="0" c="0" d="0"/>
        </elevationProfile>
        <lateralProfile/>
        <lanes>
            <laneSection s="0">
                <center>
                    <lane id="0" type="none" level="true">
                        <link/>
                        <roadMark sOffset="0" type="solid" weight="standard" color="standard" width="0.13"/>
                    </lane>
                </center>
                <right>
                    <lane id="-1" type="driving" level="true">
                        <link/>
                        <width sOffset="0" a="3.20" b="0" c="0" d="0"/>
                        <roadMark sOffset="0" type="solid" weight="standard" color="standard" width="0.13"/>
                        <speed sOffset="0" max="23.33"/>
                    </lane>
                 </right>
            </laneSection>
        </lanes>
        <objects/>
        <signals/>
    </road>
    <road name="" length="72.81146004" id="394" junction="-1">
        <link>
            <predecessor elementType="junction" elementId="4"/>
        </link>
        <type s="0" type="town"/>
        <planView>
            <geometry s="0.00000000" x="873.74003066" y="451.62764047" hdg="1.16781676" length="25.90770394">
                <line/>
            </geometry>
            <geometry s="25.90770394" x="883.90002110" y="475.46004944" hdg="1.16781676" length="1.63472844">
                <paramPoly3 aU="0.00000000" bU="1.22604467" cU="1.22596547" dU="-0.81731264" aV="0.00000000" bV="0.00000000" cV="-0.02493698" dV="0.01524566" pRange="normalized"/>
            </geometry>
            <geometry s="27.54243237" x="884.55000068" y="476.96000157" hdg="1.16444250" length="1.95776941">
                <paramPoly3 aU="0.00000000" bU="1.46832678" cU="1.46831676" dU="-0.97887896" aV="0.00000000" bV="0.00000000" cV="0.00939469" dV="-0.00521930" pRange="normalized"/>
            </geometry>
            <geometry s="29.50020178" x="885.31999662" y="478.75999209" hdg="1.16657519" length="1.95776151">
                <paramPoly3 aU="0.00000000" bU="1.46831929" cU="1.46834201" dU="-0.97890225" aV="0.00000000" bV="0.00000000" cV="-0.00816892" dV="0.00816884" pRange="normalized"/>
            </geometry>
            <geometry s="31.45796329" x="886.08998878" y="480.55997336" hdg="1.17213850" length="1.62315061">
                <paramPoly3 aU="0.00000000" bU="1.21735926" cU="1.21731805" dU="-0.81156817" aV="0.00000000" bV="0.00000000" cV="0.01976856" dV="-0.00887692" pRange="normalized"/>
            </geometry>
            <geometry s="33.08111390" x="886.71001259" y="482.06003081" hdg="1.18274065" length="1.57468135">
                <paramPoly3 aU="0.00000000" bU="1.18101001" cU="1.18098889" dU="-0.78733155" aV="0.00000000" bV="-0.00000000" cV="0.01263532" dV="-0.00631824" pRange="normalized"/>
            </geometry>
            <geometry s="34.65579525" x="887.30000260" y="483.52000647" hdg="1.18808858" length="1.79938469">
                <paramPoly3 aU="0.00000000" bU="1.34953815" cU="1.34954130" dU="-0.89969648" aV="0.00000000" bV="0.00000000" cV="0.00201537" dV="0.00008881" pRange="normalized"/>
            </geometry>
            <geometry s="36.45517994" x="887.97000088" y="485.19000221" hdg="1.19127276" length="1.97951836">
                <paramPoly3 aU="0.00000000" bU="1.48463857" cU="1.48463090" dU="-0.98975470" aV="0.00000000" bV="0.00000000" cV="0.00826776" dV="-0.00464238" pRange="normalized"/>
            </geometry>
            <geometry s="38.43469830" x="888.70000012" y="487.03000031" hdg="1.19302967" length="2.08722348">
                <paramPoly3 aU="0.00000000" bU="1.56541749" cU="1.56541907" dU="-1.04361324" aV="0.00000000" bV="-0.00000000" cV="0.00179003" dV="-0.00193757" pRange="normalized"/>
            </geometry>
            <geometry s="40.52192177" x="889.47000023" y="488.97000057" hdg="1.19160343" length="2.15406180">
                <paramPoly3 aU="0.00000000" bU="1.61554619" cU="1.61554061" dU="-1.07702708" aV="0.00000000" bV="0.00000000" cV="-0.00846139" dV="0.00563206" pRange="normalized"/>
            </geometry>
            <geometry s="42.67598357" x="890.26999862" y="490.96999654" hdg="1.19158697" length="2.14108272">
                <paramPoly3 aU="0.00000000" bU="1.60581150" cU="1.60581608" dU="-1.07054740" aV="0.00000000" bV="-0.00000000" cV="0.00270008" dV="0.00009379" pRange="normalized"/>
            </geometry>
            <geometry s="44.81706630" x="891.06000139" y="492.96000351" hdg="1.19512507" length="2.08355069">
                <paramPoly3 aU="0.00000000" bU="1.56266257" cU="1.56264614" dU="-1.04176411" aV="0.00000000" bV="0.00000000" cV="0.01404408" dV="-0.00926258" pRange="normalized"/>
            </geometry>
            <geometry s="46.90061699" x="891.81999971" y="494.89999927" hdg="1.19531733" length="1.97952213">
                <paramPoly3 aU="0.00000000" bU="1.48464133" cU="1.48462865" dU="-0.98975305" aV="0.00000000" bV="-0.00000000" cV="-0.01079081" dV="0.00640988" pRange="normalized"/>
            </geometry>
            <geometry s="48.88013912" x="892.55000031" y="496.74000079" hdg="1.19373312" length="1.79568786">
                <paramPoly3 aU="0.00000000" bU="1.34676585" cU="1.34676457" dU="-0.89784305" aV="0.00000000" bV="-0.00000000" cV="0.00391503" dV="-0.00267006" pRange="normalized"/>
            </geometry>
            <geometry s="50.67582699" x="893.20999977" y="498.40999941" hdg="1.19359937" length="1.57098958">
                <paramPoly3 aU="0.00000000" bU="1.17824213" cU="1.17824106" dU="-0.78549439" aV="0.00000000" bV="0.00000000" cV="-0.00289171" dV="0.00140657" pRange="normalized"/>
            </geometry>
            <geometry s="52.24681657" x="893.79000071" y="499.87000178" hdg="1.19227220" length="20.56464347">
                <line/>
            </geometry>
        </planView>
        <elevationProfile>
            <elevation s="0" a="0.00" b="0" c="0" d="0"/>
        </elevationProfile>
        <lateralProfile/>
        <lanes>
            <laneSection s="0">
                <center>
                    <lane id="0" type="none" level="true">
                        <link/>
                        <roadMark sOffset="0" type="solid" weight="standard" color="standard" width="0.13"/>
                    </lane>
                </center>
                <right>
                    <lane id="-1" type="driving" level="true">
                        <link/>
                        <width sOffset="0" a="3.20" b="0" c="0" d="0"/>
                        <roadMark sOffset="0" type="solid" weight="standard" color="standard" width="0.13"/>
                        <speed sOffset="0" max="23.33"/>
                    </lane>
                 </right>
            </laneSection>
        </lanes>
        <objects/>
        <signals/>
    </road>
    <road name="" length="23.76466481" id="395" junction="-1">
        <link>
            <predecessor elementType="junction" elementId="4"/>
            <successor elementType="junction" elementId="6"/>
        </link>
        <type s="0" type="town"/>
        <planView>
            <geometry s="0.00000000" x="876.77524441" y="432.38625948" hdg="-0.39897822" length="23.76466481">
                <line/>
            </geometry>
        </planView>
        <elevationProfile>
            <elevation s="0" a="0.00" b="0" c="0" d="0"/>
        </elevationProfile>
        <lateralProfile/>
        <lanes>
            <laneSection s="0">
                <center>
                    <lane id="0" type="none" level="true">
                        <link/>
                        <roadMark sOffset="0" type="solid" weight="standard" color="standard" width="0.13"/>
                    </lane>
                </center>
                <right>
                    <lane id="-1" type="driving" level="true">
                        <link/>
                        <width sOffset="0" a="3.20" b="0" c="0" d="0"/>
                        <roadMark sOffset="0" type="broken" weight="standard" color="standard" width="0.13"/>
                        <speed sOffset="0" max="15.74"/>
                    </lane>
                    <lane id="-2" type="driving" level="true">
                        <link/>
                        <width sOffset="0" a="3.20" b="0" c="0" d="0"/>
                        <roadMark sOffset="0" type="solid" weight="standard" color="standard" width="0.13"/>
                        <speed sOffset="0" max="15.74"/>
                    </lane>
                 </right>
            </laneSection>
        </lanes>
        <objects/>
        <signals/>
    </road>
    <road name="" length="44.37006586" id="396" junction="-1">
        <link>
            <predecessor elementType="junction" elementId="6"/>
            <successor elementType="junction" elementId="7"/>
        </link>
        <type s="0" type="town"/>
        <planView>
            <geometry s="0.00000000" x="906.04580269" y="420.04458462" hdg="-0.39932841" length="8.03640345">
                <line/>
            </geometry>
            <geometry s="8.03640345" x="913.44992052" y="416.92003353" hdg="-0.39932841" length="1.57317265">
                <paramPoly3 aU="0.00000000" bU="1.17987936" cU="1.17987897" dU="-0.78658683" aV="0.00000000" bV="0.00000000" cV="0.00280957" dV="-0.00105663" pRange="normalized"/>
            </geometry>
            <geometry s="9.60957611" x="914.90000007" y="416.30999997" hdg="-0.39725256" length="1.86461832">
                <paramPoly3 aU="0.00000000" bU="1.39846336" cU="1.39846403" dU="-0.93231019" aV="0.00000000" bV="0.00000000" cV="0.00718701" dV="-0.00567429" pRange="normalized"/>
            </geometry>
            <geometry s="11.47419443" x="916.61999997" y="415.59000001" hdg="-0.39914666" length="2.02081947">
                <paramPoly3 aU="0.00000000" bU="1.51561339" cU="1.51559730" dU="-1.01039913" aV="0.00000000" bV="0.00000000" cV="-0.01804719" dV="0.01300270" pRange="normalized"/>
            </geometry>
            <geometry s="13.49501390" x="918.48000106" y="414.79999956" hdg="-0.39722420" length="2.08923425">
                <paramPoly3 aU="0.00000000" bU="1.56692401" cU="1.56686676" dU="-1.04457784" aV="0.00000000" bV="-0.00000000" cV="0.02678824" dV="-0.01785883" pRange="normalized"/>
            </geometry>
            <geometry s="15.58424815" x="920.40999894" y="414.00000045" hdg="-0.39722420" length="2.02081944">
                <paramPoly3 aU="0.00000000" bU="1.51561337" cU="1.51555698" dU="-1.01037226" aV="0.00000000" bV="0.00000000" cV="-0.02387454" dV="0.01494512" pRange="normalized"/>
            </geometry>
            <geometry s="17.60506758" x="922.27000000" y="413.21000000" hdg="-0.39914667" length="1.86462088">
                <paramPoly3 aU="0.00000000" bU="1.39846442" cU="1.39844652" dU="-0.93229854" aV="0.00000000" bV="0.00000000" cV="0.01781795" dV="-0.01277346" pRange="normalized"/>
            </geometry>
            <geometry s="19.46968846" x="923.99000120" y="412.48999949" hdg="-0.40106625" length="1.56779430">
                <paramPoly3 aU="0.00000000" bU="1.17584379" cU="1.17577275" dU="-0.78384853" aV="0.00000000" bV="0.00000000" cV="-0.02536234" dV="0.01673858" pRange="normalized"/>
            </geometry>
            <geometry s="21.03748276" x="925.42999265" y="411.87000312" hdg="-0.40149909" length="1.52847770">
                <paramPoly3 aU="0.00000000" bU="1.14635709" cU="1.14630634" dU="-0.76420796" aV="0.00000000" bV="0.00000000" cV="0.01876906" dV="-0.01082389" pRange="normalized"/>
            </geometry>