<?xml version="1.0" encoding="UTF-8"?>

<!-- generated on 2025-05-21 16:59:01 by Eclipse SUMO netconvert Version 1.21.0
<netconvertConfiguration xmlns:xsi="http://www.w3.org/2001/XMLSchema-instance" xsi:noNamespaceSchemaLocation="http://sumo.dlr.de/xsd/netconvertConfiguration.xsd">

    <input>
        <sumo-net-file value="c:/Users/xh8/ornl_work/github_workspace/Real-Twin-Dev/datasets/tss/output/OpenDrive/chatt.net.xml"/>
    </input>

    <output>
        <opendrive-output value="c:/Users/xh8/ornl_work/github_workspace/Real-Twin-Dev/datasets/tss/output/OpenDrive/chatt.xodr"/>
    </output>

    <processing>
        <geometry.min-radius.fix.railways value="false"/>
        <geometry.max-grade.fix value="false"/>
        <offset.disable-normalization value="true"/>
        <lefthand value="0"/>
    </processing>

    <junctions>
        <no-turnarounds value="true"/>
        <junctions.corner-detail value="5"/>
        <junctions.limit-turn-speed value="5.50"/>
    </junctions>

    <pedestrian>
        <walkingareas value="0"/>
    </pedestrian>

</netconvertConfiguration>
-->

<OpenDRIVE>
    <header revMajor="1" revMinor="4" name="" version="1.00" date="Wed May 21 16:59:01 2025" north="912.61" south="0.00" east="1229.89" west="0.00">
        <geoReference>
 <![CDATA[
 +proj=utm +zone=16 +ellps=WGS84 +datum=WGS84 +units=m +no_defs                    
]]>
        </geoReference>
        <offset x="-667883.19" y="-3878704.61" z="0.00" hdg="0"/>
    </header>
    <road name="" length="27.81641602" id="530" junction="-1">
        <link>
            <predecessor elementType="junction" elementId="1"/>
            <successor elementType="junction" elementId="2"/>
        </link>
        <type s="0" type="town"/>
        <planView>
            <geometry s="0.00000000" x="896.46000000" y="360.64000000" hdg="2.74245987" length="27.81641602">
                <line/>
            </geometry>
        </planView>
        <elevationProfile>
            <elevation s="0" a="0.00" b="0" c="0" d="0"/>
        </elevationProfile>
        <lateralProfile/>
        <lanes>
            <laneSection s="0">
                <center>
                    <lane id="0" type="none" level="true">
                        <link/>
                        <roadMark sOffset="0" type="solid" weight="standard" color="standard" width="0.13"/>
                    </lane>
                </center>
                <right>
                    <lane id="-1" type="driving" level="true">
                        <link/>
                        <width sOffset="0" a="3.20" b="0" c="0" d="0"/>
                        <roadMark sOffset="0" type="broken" weight="standard" color="standard" width="0.13"/>
                        <speed sOffset="0" max="15.74"/>
                    </lane>
                    <lane id="-2" type="driving" level="true">
                        <link/>
                        <width sOffset="0" a="3.20" b="0" c="0" d="0"/>
                        <roadMark sOffset="0" type="broken" weight="standard" color="standard" width="0.13"/>
                        <speed sOffset="0" max="15.74"/>
                    </lane>
                    <lane id="-3" type="driving" level="true">
                        <link/>
                        <width sOffset="0" a="3.20" b="0" c="0" d="0"/>
                        <roadMark sOffset="0" type="solid" weight="standard" color="standard" width="0.13"/>
                        <speed sOffset="0" max="15.74"/>
                    </lane>
                 </right>
            </laneSection>
        </lanes>
        <objects/>
        <signals>
            <signal id="2_5" s="27.81641602" t="-8.00000000" orientation="+" dynamic="yes" zOffset="5" country="OpenDRIVE" type="1000011" subtype="20" height="0.78000000" width="0.26000000">
                <validity fromLane="-3" toLane="-3"/>
            </signal>
            <signal id="2_6" s="27.81641602" t="-8.00000000" orientation="+" dynamic="yes" zOffset="5" country="OpenDRIVE" type="1000011" subtype="30" height="0.78000000" width="0.26000000">
                <validity fromLane="-3" toLane="-3"/>
            </signal>
            <signal id="2_7" s="27.81641602" t="-4.80000000" orientation="+" dynamic="yes" zOffset="5" country="OpenDRIVE" type="1000011" subtype="30" height="0.78000000" width="0.26000000">
                <validity fromLane="-2" toLane="-2"/>
            </signal>
            <signal id="2_8" s="27.81641602" t="-1.60000000" orientation="+" dynamic="yes" zOffset="5" country="OpenDRIVE" type="1000011" subtype="10" height="0.78000000" width="0.26000000">
                <validity fromLane="-1" toLane="-1"/>
            </signal>
            <signal id="2_9" s="27.81641602" t="-1.60000000" orientation="+" dynamic="yes" zOffset="5" country="OpenDRIVE" type="1000001" subtype="-1" height="0.78000000" width="0.26000000">
                <validity fromLane="-1" toLane="-1"/>
            </signal>
        </signals>
    </road>
    <road name="" length="352.01089797" id="531" junction="-1">
        <link>
            <successor elementType="junction" elementId="1"/>
        </link>
        <type s="0" type="town"/>
        <planView>
            <geometry s="0.00000000" x="1229.89000000" y="224.84000000" hdg="2.75570216" length="111.05670506">
                <line/>
            </geometry>
            <geometry s="111.05670506" x="1127.00000151" y="266.63999939" hdg="2.75570216" length="1.47468035">
                <paramPoly3 aU="0.00000000" bU="1.10600394" cU="1.10583515" dU="-0.73725618" aV="-0.00000000" bV="0.00000000" cV="-0.03386573" dV="0.01766341" pRange="normalized"/>
            </geometry>
            <geometry s="112.53138541" x="1125.63995236" y="267.21002010" hdg="2.74237339" length="95.36934485">
                <line/>
            </geometry>
            <geometry s="207.90073027" x="1037.77000000" y="304.28000000" hdg="2.74237339" length="1.66234851">
                <paramPoly3 aU="0.00000000" bU="1.24676080" cU="1.24674525" dU="-0.83116357" aV="-0.00000000" bV="0.00000000" cV="-0.01323219" dV="0.00905475" pRange="normalized"/>
            </geometry>
            <geometry s="209.56307878" x="1036.24000001" y="304.93000000" hdg="2.74293474" length="1.91846331">
                <paramPoly3 aU="0.00000000" bU="1.43884700" cU="1.43882686" dU="-0.95921799" aV="-0.00000000" bV="0.00000000" cV="0.01444320" dV="-0.00933261" pRange="normalized"/>
            </geometry>
            <geometry s="211.48154209" x="1034.47000024" y="305.66999990" hdg="2.74355231" length="2.10618061">
                <paramPoly3 aU="0.00000000" bU="1.57963487" cU="1.57962485" dU="-1.05308355" aV="-0.00000000" bV="0.00000000" cV="-0.01351421" dV="0.00958839" pRange="normalized"/>
            </geometry>
            <geometry s="213.58772270" x="1032.53000167" y="306.48999930" hdg="2.74465177" length="2.18769877">
                <paramPoly3 aU="0.00000000" bU="1.64077207" cU="1.64075134" dU="-1.09383622" aV="-0.00000000" bV="0.00000000" cV="0.02315540" dV="-0.01691392" pRange="normalized"/>
            </geometry>
            <geometry s="215.77542147" x="1030.50999869" y="307.33000055" hdg="2.74195122" length="4.31474300">
                <paramPoly3 aU="0.00000000" bU="3.23605560" cU="3.23600439" dU="-2.15733629" aV="-0.00000000" bV="0.00000000" cV="-0.03727665" dV="0.02512726" pRange="normalized"/>
            </geometry>
            <geometry s="220.09016447" x="1026.53999996" y="309.02000002" hdg="2.74220724" length="3.55462212">
                <paramPoly3 aU="0.00000000" bU="2.66596438" cU="2.66589025" dU="-1.77726017" aV="-0.00000000" bV="-0.00000000" cV="0.03992015" dV="-0.02666613" pRange="normalized"/>
            </geometry>
            <geometry s="223.64478659" x="1023.25999770" y="310.39000097" hdg="2.74214793" length="40.49812831">
                <line/>
            </geometry>
            <geometry s="264.14291490" x="985.95000001" y="326.14000000" hdg="2.74214793" length="1.66234862">
                <paramPoly3 aU="0.00000000" bU="1.24676092" cU="1.24674825" dU="-0.83116563" aV="-0.00000000" bV="-0.00000000" cV="-0.01238890" dV="0.00858626" pRange="normalized"/>
            </geometry>
            <geometry s="265.80526352" x="984.41999987" y="326.79000005" hdg="2.74293474" length="1.91846317">
                <paramPoly3 aU="0.00000000" bU="1.43884689" cU="1.43882675" dU="-0.95921792" aV="-0.00000000" bV="-0.00000000" cV="0.01444320" dV="-0.00933261" pRange="normalized"/>
            </geometry>
            <geometry s="267.72372669" x="982.65000024" y="327.52999990" hdg="2.74355231" length="2.10618061">
                <paramPoly3 aU="0.00000000" bU="1.57963487" cU="1.57962485" dU="-1.05308355" aV="-0.00000000" bV="-0.00000000" cV="-0.01351421" dV="0.00958839" pRange="normalized"/>
            </geometry>
            <geometry s="269.82990730" x="980.71000167" y="328.34999930" hdg="2.74465177" length="2.18769877">
                <paramPoly3 aU="0.00000000" bU="1.64077207" cU="1.64075134" dU="-1.09383622" aV="-0.00000000" bV="0.00000000" cV="0.02315540" dV="-0.01691392" pRange="normalized"/>
            </geometry>
            <geometry s="272.01760607" x="978.68999869" y="329.19000055" hdg="2.74195122" length="4.31474296">
                <paramPoly3 aU="0.00000000" bU="3.23605557" cU="3.23600436" dU="-2.15733627" aV="-0.00000000" bV="0.00000000" cV="-0.03727665" dV="0.02512726" pRange="normalized"/>
            </geometry>
            <geometry s="276.33234903" x="974.71999999" y="330.88000000" hdg="2.74220724" length="3.55461946">
                <paramPoly3 aU="0.00000000" bU="2.66596240" cU="2.66588827" dU="-1.77725885" aV="-0.00000000" bV="0.00000000" cV="0.03984101" dV="-0.02658699" pRange="normalized"/>
            </geometry>
            <geometry s="279.88696849" x="971.44000016" y="332.24999993" hdg="2.74217762" length="4.59705431">
                <paramPoly3 aU="0.00000000" bU="3.44778948" cU="3.44773312" dU="-2.29848937" aV="-0.00000000" bV="0.00000000" cV="-0.03648157" dV="0.02312227" pRange="normalized"/>
            </geometry>
            <geometry s="284.48402280" x="967.21000086" y="334.04999964" hdg="2.74113453" length="1.91846682">
                <paramPoly3 aU="0.00000000" bU="1.43884900" cU="1.43879586" dU="-0.95919864" aV="-0.00000000" bV="0.00000000" cV="0.02221382" dV="-0.01364961" pRange="normalized"/>
            </geometry>
            <geometry s="286.40248962" x="965.43999864" y="334.79000057" hdg="2.74355231" length="2.10617888">
                <paramPoly3 aU="0.00000000" bU="1.57963357" cU="1.57962355" dU="-1.05308268" aV="-0.00000000" bV="-0.00000000" cV="-0.01351420" dV="0.00958838" pRange="normalized"/>
            </geometry>
            <geometry s="288.50866850" x="963.50000167" y="335.60999930" hdg="2.74465177" length="2.18769877">
                <paramPoly3 aU="0.00000000" bU="1.64077207" cU="1.64075134" dU="-1.09383622" aV="-0.00000000" bV="-0.00000000" cV="0.02315539" dV="-0.01691392" pRange="normalized"/>
            </geometry>
            <geometry s="290.69636727" x="961.47999869" y="336.45000055" hdg="2.74195122" length="4.31474293">
                <paramPoly3 aU="0.00000000" bU="3.23605555" cU="3.23600434" dU="-2.15733626" aV="-0.00000000" bV="0.00000000" cV="-0.03727665" dV="0.02512726" pRange="normalized"/>
            </geometry>
            <geometry s="295.01111020" x="957.51000002" y="338.13999999" hdg="2.74220724" length="3.55462210">
                <paramPoly3 aU="0.00000000" bU="2.66596443" cU="2.66589030" dU="-1.77726020" aV="-0.00000000" bV="-0.00000000" cV="0.03963907" dV="-0.02638506" pRange="normalized"/>
            </geometry>
            <geometry s="298.56573230" x="954.22999770" y="339.51000097" hdg="2.74225336" length="53.44516566">
                <line/>
            </geometry>
        </planView>
        <elevationProfile>
            <elevation s="0" a="0.00" b="0" c="0" d="0"/>
        </elevationProfile>
        <lateralProfile/>
        <lanes>
            <laneSection s="0">
                <center>
                    <lane id="0" type="none" level="true">
                        <link/>
                        <roadMark sOffset="0" type="solid" weight="standard" color="standard" width="0.13"/>
                    </lane>
                </center>
                <right>
                    <lane id="-1" type="driving" level="true">
                        <link/>
                        <width sOffset="0" a="3.20" b="0" c="0" d="0"/>
                        <roadMark sOffset="0" type="broken" weight="standard" color="standard" width="0.13"/>
                        <speed sOffset="0" max="15.74"/>
                    </lane>
                    <lane id="-2" type="driving" level="true">
                        <link/>
                        <width sOffset="0" a="3.20" b="0" c="0" d="0"/>
                        <roadMark sOffset="0" type="solid" weight="standard" color="standard" width="0.13"/>
                        <speed sOffset="0" max="15.74"/>
                    </lane>
                 </right>
            </laneSection>
        </lanes>
        <objects/>
        <signals/>
    </road>
    <road name="" length="25.88085582" id="532" junction="-1">
        <link>
            <predecessor elementType="junction" elementId="3"/>
            <successor elementType="junction" elementId="4"/>
        </link>
        <type s="0" type="town"/>
        <planView>
            <geometry s="0.00000000" x="708.71000000" y="442.99000000" hdg="2.74695015" length="25.88085582">
                <line/>
            </geometry>
        </planView>
        <elevationProfile>
            <elevation s="0" a="0.00" b="0" c="0" d="0"/>
        </elevationProfile>
        <lateralProfile/>
        <lanes>
            <laneSection s="0">
                <center>
                    <lane id="0" type="none" level="true">
                        <link/>
                        <roadMark sOffset="0" type="solid" weight="standard" color="standard" width="0.13"/>
                    </lane>
                </center>
                <right>
                    <lane id="-1" type="driving" level="true">
                        <link/>
                        <width sOffset="0" a="3.20" b="0" c="0" d="0"/>
                        <roadMark sOffset="0" type="broken" weight="standard" color="standard" width="0.13"/>
                        <speed sOffset="0" max="15.74"/>
                    </lane>
                    <lane id="-2" type="driving" level="true">
                        <link/>
                        <width sOffset="0" a="3.20" b="0" c="0" d="0"/>
                        <roadMark sOffset="0" type="broken" weight="standard" color="standard" width="0.13"/>
                        <speed sOffset="0" max="15.74"/>
                    </lane>
                    <lane id="-3" type="driving" level="true">
                        <link/>
                        <width sOffset="0" a="3.20" b="0" c="0" d="0"/>
                        <roadMark sOffset="0" type="solid" weight="standard" color="standard" width="0.13"/>
                        <speed sOffset="0" max="15.74"/>
                    </lane>
                 </right>
            </laneSection>
        </lanes>
        <objects/>
        <signals/>
    </road>
    <road name="" length="8.33538241" id="533" junction="-1">
        <link>
            <predecessor elementType="junction" elementId="3"/>
        </link>
        <type s="0" type="town"/>
        <planView>
            <geometry s="0.00000000" x="711.67000000" y="423.81000000" hdg="-1.97915376" length="8.33538241">
                <line/>
            </geometry>
        </planView>
        <elevationProfile>
            <elevation s="0" a="0.00" b="0" c="0" d="0"/>
        </elevationProfile>
        <lateralProfile/>
        <lanes>
            <laneSection s="0">
                <center>
                    <lane id="0" type="none" level="true">
                        <link/>
                        <roadMark sOffset="0" type="solid" weight="standard" color="standard" width="0.13"/>
                    </lane>
                </center>
                <right>
                    <lane id="-1" type="driving" level="true">
                        <link/>
                        <width sOffset="0" a="3.20" b="0" c="0" d="0"/>
                        <roadMark sOffset="0" type="solid" weight="standard" color="standard" width="0.13"/>
                        <speed sOffset="0" max="23.33"/>
                    </lane>
                 </right>
            </laneSection>
        </lanes>
        <objects/>
        <signals/>
    </road>
    <road name="" length="72.81045810" id="534" junction="-1">
        <link>
            <predecessor elementType="junction" elementId="3"/>
        </link>
        <type s="0" type="town"/>
        <planView>
            <geometry s="0.00000000" x="723.54999997" y="451.48999993" hdg="1.16777995" length="25.90549154">
                <line/>
            </geometry>
            <geometry s="25.90549154" x="733.70999991" y="475.31999979" hdg="1.16777995" length="1.63477626">
                <paramPoly3 aU="0.00000000" bU="1.22608046" cU="1.22599944" dU="-0.81733433" aV="0.00000000" bV="0.00000000" cV="-0.02572384" dV="0.01609269" pRange="normalized"/>
            </geometry>
            <geometry s="27.54026780" x="734.35999820" y="476.81999581" hdg="1.16519479" length="3.91553544">
                <paramPoly3 aU="0.00000000" bU="2.93664948" cU="2.93667466" dU="-1.95779523" aV="0.00000000" bV="0.00000000" cV="0.00159872" dV="0.00380633" pRange="normalized"/>
            </geometry>
            <geometry s="31.45580324" x="735.89998806" y="480.41997180" hdg="1.17017205" length="1.62317265">
                <paramPoly3 aU="0.00000000" bU="1.21737408" cU="1.21728693" dU="-0.81155667" aV="0.00000000" bV="0.00000000" cV="0.02695042" dV="-0.01286687" pRange="normalized"/>
            </geometry>
            <geometry s="33.07897589" x="736.52001942" y="481.92004751" hdg="1.18274062" length="1.57466173">
                <paramPoly3 aU="0.00000000" bU="1.18099529" cU="1.18097417" dU="-0.78732174" aV="0.00000000" bV="-0.00000000" cV="0.01263543" dV="-0.00631832" pRange="normalized"/>
            </geometry>
            <geometry s="34.65363761" x="737.11000201" y="483.38000500" hdg="1.18808861" length="1.79938723">
                <paramPoly3 aU="0.00000000" bU="1.34953988" cU="1.34954585" dU="-0.89970045" aV="0.00000000" bV="-0.00000000" cV="0.00120557" dV="0.00089856" pRange="normalized"/>
            </geometry>
            <geometry s="36.45302484" x="737.78000115" y="485.05000289" hdg="1.19187273" length="4.06674028">
                <paramPoly3 aU="0.00000000" bU="3.05005501" cU="3.05004691" dU="-2.03336463" aV="0.00000000" bV="-0.00000000" cV="0.01347969" dV="-0.00877472" pRange="normalized"/>
            </geometry>
            <geometry s="40.51976513" x="739.27999998" y="488.82999996" hdg="1.19208099" length="2.15406263">
                <paramPoly3 aU="0.00000000" bU="1.61554673" cU="1.61553657" dU="-1.07702444" aV="0.00000000" bV="-0.00000000" cV="-0.01077595" dV="0.00691792" pRange="normalized"/>
            </geometry>
            <geometry s="42.67382775" x="740.07999865" y="490.82999661" hdg="1.19158697" length="2.14108265">
                <paramPoly3 aU="0.00000000" bU="1.60581144" cU="1.60581603" dU="-1.07054737" aV="0.00000000" bV="0.00000000" cV="0.00270008" dV="0.00009379" pRange="normalized"/>
            </geometry>
            <geometry s="44.81491040" x="740.87000139" y="492.82000351" hdg="1.19512507" length="2.08355069">
                <paramPoly3 aU="0.00000000" bU="1.56266257" cU="1.56264614" dU="-1.04176411" aV="0.00000000" bV="0.00000000" cV="0.01404408" dV="-0.00926258" pRange="normalized"/>
            </geometry>
            <geometry s="46.89846110" x="741.62999971" y="494.75999927" hdg="1.19531733" length="1.97952159">
                <paramPoly3 aU="0.00000000" bU="1.48464092" cU="1.48462824" dU="-0.98975278" aV="0.00000000" bV="0.00000000" cV="-0.01079081" dV="0.00640988" pRange="normalized"/>
            </geometry>
            <geometry s="48.87798269" x="742.36000011" y="496.60000028" hdg="1.19373312" length="1.79568937">
                <paramPoly3 aU="0.00000000" bU="1.34676680" cU="1.34676688" dU="-0.89784505" aV="0.00000000" bV="0.00000000" cV="0.00566066" dV="-0.00441570" pRange="normalized"/>
            </geometry>
            <geometry s="50.67367206" x="743.02000003" y="498.27000008" hdg="1.19230320" length="22.13678604">
                <line/>
            </geometry>
        </planView>
        <elevationProfile>
            <elevation s="0" a="0.00" b="0" c="0" d="0"/>
        </elevationProfile>
        <lateralProfile/>
        <lanes>
            <laneSection s="0">
                <center>
                    <lane id="0" type="none" level="true">
                        <link/>
                        <roadMark sOffset="0" type="solid" weight="standard" color="standard" width="0.13"/>
                    </lane>
                </center>
                <right>
                    <lane id="-1" type="driving" level="true">
                        <link/>
                        <width sOffset="0" a="3.20" b="0" c="0" d="0"/>
                        <roadMark sOffset="0" type="solid" weight="standard" color="standard" width="0.13"/>
                        <speed sOffset="0" max="23.33"/>
                    </lane>
                 </right>
            </laneSection>
        </lanes>
        <objects/>
        <signals/>
    </road>
    <road name="" length="23.75636757" id="535" junction="-1">
        <link>
            <predecessor elementType="junction" elementId="3"/>
            <successor elementType="junction" elementId="5"/>
        </link>
        <type s="0" type="town"/>
        <planView>
            <geometry s="0.00000000" x="726.59000000" y="432.25000000" hdg="-0.39903291" length="23.75636757">
                <line/>
            </geometry>
        </planView>
        <elevationProfile>
            <elevation s="0" a="0.00" b="0" c="0" d="0"/>
        </elevationProfile>
        <lateralProfile/>
        <lanes>
            <laneSection s="0">
                <center>
                    <lane id="0" type="none" level="true">
                        <link/>
                        <roadMark sOffset="0" type="solid" weight="standard" color="standard" width="0.13"/>
                    </lane>
                </center>
                <right>
                    <lane id="-1" type="driving" level="true">
                        <link/>
                        <width sOffset="0" a="3.20" b="0" c="0" d="0"/>
                        <roadMark sOffset="0" type="broken" weight="standard" color="standard" width="0.13"/>
                        <speed sOffset="0" max="15.74"/>
                    </lane>
                    <lane id="-2" type="driving" level="true">
                        <link/>
                        <width sOffset="0" a="3.20" b="0" c="0" d="0"/>
                        <roadMark sOffset="0" type="solid" weight="standard" color="standard" width="0.13"/>
                        <speed sOffset="0" max="15.74"/>
                    </lane>
                 </right>
            </laneSection>
        </lanes>
        <objects/>
        <signals/>
    </road>
    <road name="" length="44.36840698" id="536" junction="-1">
        <link>
            <predecessor elementType="junction" elementId="5"/>
            <successor elementType="junction" elementId="6"/>
        </link>
        <type s="0" type="town"/>
        <planView>
            <geometry s="0.00000000" x="755.85999997" y="419.91000001" hdg="-0.40015249" length="8.03473002">
                <line/>
            </geometry>
            <geometry s="8.03473002" x="763.25999919" y="416.78000034" hdg="-0.40015249" length="1.57308853">
                <paramPoly3 aU="0.00000000" bU="1.17981612" cU="1.17981222" dU="-0.78654313" aV="0.00000000" bV="0.00000000" cV="0.00572637" dV="-0.00267711" pRange="normalized"/>
            </geometry>
            <geometry s="9.60781854" x="764.71000106" y="416.16999956" hdg="-0.39725252" length="1.86461725">
                <paramPoly3 aU="0.00000000" bU="1.39846256" cU="1.39846322" dU="-0.93230965" aV="0.00000000" bV="0.00000000" cV="0.00718681" dV="-0.00567417" pRange="normalized"/>
            </geometry>
            <geometry s="11.47243580" x="766.42999997" y="415.45000001" hdg="-0.39914667" length="2.02081947">
                <paramPoly3 aU="0.00000000" bU="1.51561339" cU="1.51559730" dU="-1.01039913" aV="0.00000000" bV="0.00000000" cV="-0.01804719" dV="0.01300270" pRange="normalized"/>
            </geometry>
            <geometry s="13.49325526" x="768.29000106" y="414.65999956" hdg="-0.39722420" length="2.08923425">
                <paramPoly3 aU="0.00000000" bU="1.56692401" cU="1.56686676" dU="-1.04457784" aV="0.00000000" bV="0.00000000" cV="0.02678824" dV="-0.01785883" pRange="normalized"/>
            </geometry>
            <geometry s="15.58248951" x="770.21999894" y="413.86000045" hdg="-0.39722420" length="2.02081944">
                <paramPoly3 aU="0.00000000" bU="1.51561337" cU="1.51555698" dU="-1.01037226" aV="0.00000000" bV="0.00000000" cV="-0.02387454" dV="0.01494512" pRange="normalized"/>
            </geometry>
            <geometry s="17.60330895" x="772.08000000" y="413.07000000" hdg="-0.39914667" length="1.86462088">
                <paramPoly3 aU="0.00000000" bU="1.39846442" cU="1.39844652" dU="-0.93229854" aV="0.00000000" bV="0.00000000" cV="0.01781795" dV="-0.01277346" pRange="normalized"/>
            </geometry>
            <geometry s="19.46792982" x="773.80000120" y="412.34999949" hdg="-0.40106625" length="1.56779430">
                <paramPoly3 aU="0.00000000" bU="1.17584379" cU="1.17577275" dU="-0.78384853" aV="0.00000000" bV="0.00000000" cV="-0.02536234" dV="0.01673858" pRange="normalized"/>
            </geometry>
            <geometry s="21.03572412" x="775.23999265" y="411.73000312" hdg="-0.40149909" length="1.52847770">
                <paramPoly3 aU="0.00000000" bU="1.14635709" cU="1.14630634" dU="-0.76420796" aV="0.00000000" bV="0.00000000" cV="0.01876906" dV="-0.01082389" pRange="normalized"/>
            </geometry>
            <geometry s="22.56420182" x="776.65000448" y="411.13999812" hdg="-0.39707946" length="1.83308227">
                <paramPoly3 aU="0.00000000" bU="1.37481143" cU="1.37481491" dU="-0.91654482" aV="0.00000000" bV="0.00000000" cV="0.00000287" dV="-0.00119278" pRange="normalized"/>
            </geometry>
            <geometry s="24.39728409" x="778.34000178" y="410.42999925" hdg="-0.39967807" length="1.94465846">
                <paramPoly3 aU="0.00000000" bU="1.45849333" cU="1.45848425" dU="-0.97232309" aV="0.00000000" bV="0.00000000" cV="-0.01221934" dV="0.00864578" pRange="normalized"/>
            </geometry>
            <geometry s="26.34194256" x="780.13000033" y="409.66999986" hdg="-0.39865054" length="1.84230823">
                <paramPoly3 aU="0.00000000" bU="1.38173042" cU="1.38170515" dU="-0.92113677" aV="0.00000000" bV="0.00000000" cV="0.01673691" dV="-0.01116515" pRange="normalized"/>
            </geometry>
            <geometry s="28.18425078" x="781.82999931" y="408.96000029" hdg="-0.39866619" length="1.53235387">
                <paramPoly3 aU="0.00000000" bU="1.14926385" cU="1.14923529" dU="-0.76615758" aV="0.00000000" bV="-0.00000000" cV="-0.01902216" dV="0.01342156" pRange="normalized"/>
            </geometry>
            <geometry s="29.71660465" x="783.23999993" y="408.36000003" hdg="-0.39673419" length="14.65180233">
                <line/>
            </geometry>
        </planView>
        <elevationProfile>
            <elevation s="0" a="0.00" b="0" c="0" d="0"/>
        </elevationProfile>
        <lateralProfile/>
        <lanes>
            <laneSection s="0">
                <center>
                    <lane id="0" type="none" level="true">
                        <link/>
                        <roadMark sOffset="0" type="solid" weight="standard" color="standard" width="0.13"/>
                    </lane>
                </center>
                <right>
                    <lane id="-1" type="driving" level="true">
                        <link/>
                        <width sOffset="0" a="3.20" b="0" c="0" d="0"/>
                        <roadMark sOffset="0" type="broken" weight="standard" color="standard" width="0.13"/>
                        <speed sOffset="0" max="15.74"/>
                    </lane>
                    <lane id="-2" type="driving" level="true">
                        <link/>
                        <width sOffset="0" a="3.20" b="0" c="0" d="0"/>
                        <roadMark sOffset="0" type="broken" weight="standard" color="standard" width="0.13"/>
                        <speed sOffset="0" max="15.74"/>
                    </lane>
                    <lane id="-3" type="driving" level="true">
                        <link/>
                        <width sOffset="0" a="3.20" b="0" c="0" d="0"/>
                        <roadMark sOffset="0" type="solid" weight="standard" color="standard" width="0.13"/>
                        <speed sOffset="0" max="15.74"/>
                    </lane>
                 </right>
            </laneSection>
        </lanes>
        <objects/>
        <signals/>
    </road>
    <road name="" length="83.66098256" id="537" junction="-1">
        <link>
            <predecessor elementType="junction" elementId="7"/>
            <successor elementType="junction" elementId="8"/>
        </link>
        <type s="0" type="town"/>
        <planView>
            <geometry s="0.00000000" x="316.78000459" y="610.77999762" hdg="2.66256169" length="4.36079958">
                <line/>
            </geometry>