<?xml version="1.0" encoding="UTF-8"?>

<!-- generated on 2025-02-27 16:20:40 by Eclipse SUMO jtrrouter Version 1.21.0
<jtrrouterConfiguration xmlns:xsi="http://www.w3.org/2001/XMLSchema-instance" xsi:noNamespaceSchemaLocation="http://sumo.dlr.de/xsd/jtrrouterConfiguration.xsd">

    <input>
        <net-file value="C:/Users/xh8/ornl_work/github_workspace/Real-Twin/datasets/chattanooga/output/SUMO/chatt.net.xml"/>
        <route-files value="C:/Users/xh8/ornl_work/github_workspace/Real-Twin/datasets/chattanooga/output/SUMO/chatt.flow.xml"/>
        <turn-ratio-files value="C:/Users/xh8/ornl_work/github_workspace/Real-Twin/datasets/chattanooga/output/SUMO/chatt.turn.xml"/>
    </input>

    <output>
        <output-file value="C:/Users/xh8/ornl_work/github_workspace/Real-Twin/datasets/chattanooga/output/SUMO/chatt.rou.xml"/>
    </output>

    <processing>
        <randomize-flows value="true"/>
        <remove-loops value="True"/>
        <accept-all-destinations value="true"/>
    </processing>

    <random_number>
        <seed value="812"/>
    </random_number>

</jtrrouterConfiguration>
-->

<routes xmlns:xsi="http://www.w3.org/2001/XMLSchema-instance" xsi:noNamespaceSchemaLocation="http://sumo.dlr.de/xsd/routes_file.xsd">
    <vType id="car"/>
    <vehicle id="2.0" type="car" depart="28800.77">
        <route edges="-312 -293 -297 -288 -286 -302 -321 -300 -285 -290 -299"/>
    </vehicle>
    <vehicle id="5.0" type="car" depart="28801.21">
        <route edges="-308 -306"/>
    </vehicle>
    <vehicle id="10.0" type="car" depart="28801.73">
        <route edges="-318 -281 -314"/>
    </vehicle>
    <vehicle id="2.1" type="car" depart="28802.05">
        <route edges="-312 -293 -298 -295"/>
    </vehicle>
    <vehicle id="2.2" type="car" depart="28808.31">
        <route edges="-312 -293 -299"/>
    </vehicle>
    <vehicle id="7.0" type="car" depart="28809.30">
        <route edges="-319 -303"/>
    </vehicle>
    <vehicle id="5.1" type="car" depart="28809.61">
        <route edges="-308 -307 -327 -281 -314"/>
    </vehicle>
    <vehicle id="2.3" type="car" depart="28812.72">
        <route edges="-312 -293 -297 -288 -287"/>
    </vehicle>
    <vehicle id="7.1" type="car" depart="28813.00">
        <route edges="-319 -300 -285 -290 -298 -295"/>
    </vehicle>
    <vehicle id="2.4" type="car" depart="28814.10">
        <route edges="-312 -293 -297 -288 -287"/>
    </vehicle>
    <vehicle id="7.2" type="car" depart="28814.12">
        <route edges="-319 -302 -322 -313 -284 -328 -305"/>
    </vehicle>
    <vehicle id="10.1" type="car" depart="28823.61">
        <route edges="-318 -281 -315 -321 -300 -285 -289"/>
    </vehicle>
    <vehicle id="4.0" type="car" depart="28826.98">
        <route edges="-280 -307 -327 -281 -315 -321 -300 -285 -290 -298 -295"/>
    </vehicle>
    <vehicle id="5.2" type="car" depart="28827.10">
        <route edges="-308 -307 -329"/>
    </vehicle>
    <vehicle id="3.0" type="car" depart="28827.79">
        <route edges="-324 -293 -299"/>
    </vehicle>
    <vehicle id="2.5" type="car" depart="28830.47">
        <route edges="-312 -293 -299"/>
    </vehicle>
    <vehicle id="4.1" type="car" depart="28831.55">
        <route edges="-280 -307 -329"/>
    </vehicle>
    <vehicle id="5.3" type="car" depart="28832.81">
        <route edges="-308 -304"/>
    </vehicle>
    <vehicle id="2.6" type="car" depart="28837.59">
        <route edges="-312 -293 -297 -288 -286 -302 -322 -315 -321 -300 -285 -290 -298 -295"/>
    </vehicle>
    <vehicle id="2.7" type="car" depart="28837.77">
        <route edges="-312 -293 -299"/>
    </vehicle>
    <vehicle id="7.3" type="car" depart="28838.28">
        <route edges="-319 -300 -287"/>
    </vehicle>
    <vehicle id="2.8" type="car" depart="28838.61">
        <route edges="-312 -293 -297 -289"/>
    </vehicle>
    <vehicle id="9.0" type="car" depart="28839.00">
        <route edges="-317 -283"/>
    </vehicle>
    <vehicle id="2.9" type="car" depart="28840.92">
        <route edges="-312 -293 -297 -288 -286 -302 -321 -300 -285 -290 -299"/>
    </vehicle>
    <vehicle id="4.2" type="car" depart="28844.61">
        <route edges="-280 -307 -328 -305"/>
    </vehicle>
    <vehicle id="5.4" type="car" depart="28848.91">
        <route edges="-308 -307 -327 -281 -313 -284 -329"/>
    </vehicle>
    <vehicle id="5.5" type="car" depart="28851.31">
        <route edges="-308 -307 -327 -281 -315 -323"/>
    </vehicle>
    <vehicle id="2.10" type="car" depart="28851.72">
        <route edges="-312 -293 -297 -288 -286 -302 -323"/>
    </vehicle>
    <vehicle id="4.3" type="car" depart="28853.85">
        <route edges="-280 -307 -328 -306"/>
    </vehicle>
    <vehicle id="5.6" type="car" depart="28853.96">
        <route edges="-308 -307 -327 -281 -315 -321 -300 -285 -290 -298 -294"/>
    </vehicle>
    <vehicle id="4.4" type="car" depart="28855.26">
        <route edges="-280 -307 -327 -281 -315 -321 -300 -285 -289"/>
    </vehicle>
    <vehicle id="4.5" type="car" depart="28858.29">
        <route edges="-280 -307 -327 -281 -314"/>
    </vehicle>
    <vehicle id="5.7" type="car" depart="28860.49">
        <route edges="-308 -307 -327 -281 -313 -284 -329"/>
    </vehicle>
    <vehicle id="3.1" type="car" depart="28861.57">
        <route edges="-324 -293 -298 -295"/>
    </vehicle>
    <vehicle id="2.11" type="car" depart="28861.81">
        <route edges="-312 -293 -298 -295"/>
    </vehicle>
    <vehicle id="4.6" type="car" depart="28862.43">
        <route edges="-280 -307 -327 -281 -315 -321 -301"/>
    </vehicle>
    <vehicle id="4.7" type="car" depart="28863.16">
        <route edges="-280 -307 -328 -305"/>
    </vehicle>
    <vehicle id="4.8" type="car" depart="28864.90">
        <route edges="-280 -307 -329"/>
    </vehicle>
    <vehicle id="4.9" type="car" depart="28866.17">
        <route edges="-280 -307 -329"/>
    </vehicle>
    <vehicle id="3.2" type="car" depart="28866.69">
        <route edges="-324 -293 -297 -289"/>
    </vehicle>
    <vehicle id="2.12" type="car" depart="28867.09">
        <route edges="-312 -293 -297 -288 -287"/>
    </vehicle>
    <vehicle id="5.8" type="car" depart="28867.81">
        <route edges="-308 -304"/>
    </vehicle>
    <vehicle id="4.10" type="car" depart="28868.21">
        <route edges="-280 -307 -327 -281 -314"/>
    </vehicle>
    <vehicle id="6.0" type="car" depart="28868.23">
        <route edges="-326 -304"/>
    </vehicle>
    <vehicle id="2.13" type="car" depart="28869.43">
        <route edges="-312 -293 -298 -295"/>
    </vehicle>
    <vehicle id="2.14" type="car" depart="28869.66">
        <route edges="-312 -293 -298 -296"/>
    </vehicle>
    <vehicle id="4.11" type="car" depart="28870.08">
        <route edges="-280 -307 -327 -281 -314"/>
    </vehicle>
    <vehicle id="4.12" type="car" depart="28870.19">
        <route edges="-280 -307 -327 -281 -313 -284 -328 -305"/>
    </vehicle>
    <vehicle id="5.9" type="car" depart="28870.21">
        <route edges="-308 -307 -327 -281 -313 -284 -329"/>
    </vehicle>
    <vehicle id="6.1" type="car" depart="28875.36">
        <route edges="-326 -307 -327 -281 -313 -283"/>
    </vehicle>
    <vehicle id="4.13" type="car" depart="28875.60">
        <route edges="-280 -307 -327 -281 -315 -322 -314"/>
    </vehicle>
    <vehicle id="5.10" type="car" depart="28876.79">
        <route edges="-308 -306"/>
    </vehicle>
    <vehicle id="5.11" type="car" depart="28877.48">
        <route edges="-308 -307 -327 -281 -314"/>
    </vehicle>
    <vehicle id="4.14" type="car" depart="28881.37">
        <route edges="-280 -307 -327 -281 -313 -284 -328 -304"/>
    </vehicle>
    <vehicle id="4.15" type="car" depart="28883.05">
        <route edges="-280 -306"/>
    </vehicle>
    <vehicle id="5.12" type="car" depart="28885.54">
        <route edges="-308 -307 -329"/>
    </vehicle>
    <vehicle id="10.2" type="car" depart="28885.70">
        <route edges="-318 -281 -315 -323"/>
    </vehicle>
    <vehicle id="5.13" type="car" depart="28886.31">
        <route edges="-308 -304"/>
    </vehicle>
    <vehicle id="4.16" type="car" depart="28886.99">
        <route edges="-280 -307 -328 -305"/>
    </vehicle>
    <vehicle id="4.17" type="car" depart="28887.42">
        <route edges="-280 -307 -328 -305"/>
    </vehicle>
    <vehicle id="4.18" type="car" depart="28887.76">
        <route edges="-280 -307 -327 -281 -314"/>
    </vehicle>
    <vehicle id="4.19" type="car" depart="28890.07">
        <route edges="-280 -307 -328 -305"/>
    </vehicle>
    <vehicle id="7.4" type="car" depart="28890.13">
        <route edges="-319 -300 -285 -290 -297 -288 -286 -302 -322 -313 -284 -329"/>
    </vehicle>
    <vehicle id="3.3" type="car" depart="28892.30">
        <route edges="-324 -293 -298 -295"/>
    </vehicle>
    <vehicle id="4.20" type="car" depart="28893.60">
        <route edges="-280 -307 -327 -281 -314"/>
    </vehicle>
    <vehicle id="2.15" type="car" depart="28894.10">
        <route edges="-312 -293 -297 -289"/>
    </vehicle>
    <vehicle id="2.16" type="car" depart="28895.47">
        <route edges="-312 -293 -297 -288 -286 -302 -323"/>
    </vehicle>
    <vehicle id="7.5" type="car" depart="28898.15">
        <route edges="-319 -302 -323"/>
    </vehicle>
    <vehicle id="2.17" type="car" depart="28898.88">
        <route edges="-312 -293 -299"/>
    </vehicle>
    <vehicle id="2.18" type="car" depart="28904.63">
        <route edges="-312 -293 -297 -288 -286 -302 -321 -300 -285 -289"/>
    </vehicle>
    <vehicle id="5.14" type="car" depart="28907.30">
        <route edges="-308 -306"/>
    </vehicle>
    <vehicle id="10.3" type="car" depart="28907.77">
        <route edges="-318 -282"/>
    </vehicle>
    <vehicle id="4.21" type="car" depart="28907.84">
        <route edges="-280 -307 -327 -281 -314"/>
    </vehicle>
    <vehicle id="5.15" type="car" depart="28909.88">
        <route edges="-308 -307 -329"/>
    </vehicle>
    <vehicle id="7.6" type="car" depart="28910.56">
        <route edges="-319 -300 -287"/>
    </vehicle>
    <vehicle id="4.22" type="car" depart="28911.37">
        <route edges="-280 -307 -327 -281 -314"/>
    </vehicle>
    <vehicle id="6.2" type="car" depart="28912.54">
        <route edges="-326 -307 -327 -281 -314"/>
    </vehicle>
    <vehicle id="2.19" type="car" depart="28914.42">
        <route edges="-312 -293 -297 -289"/>
    </vehicle>
    <vehicle id="8.0" type="car" depart="28914.56">
        <route edges="-325 -300 -285 -290 -299"/>
    </vehicle>
    <vehicle id="6.3" type="car" depart="28914.94">
        <route edges="-326 -305"/>
    </vehicle>
    <vehicle id="5.16" type="car" depart="28917.90">
        <route edges="-308 -307 -329"/>
    </vehicle>
    <vehicle id="5.17" type="car" depart="28918.83">
        <route edges="-308 -306"/>
    </vehicle>
    <vehicle id="4.23" type="car" depart="28919.90">
        <route edges="-280 -307 -328 -304"/>
    </vehicle>
    <vehicle id="6.4" type="car" depart="28921.12">
        <route edges="-326 -307 -327 -281 -314"/>
    </vehicle>
    <vehicle id="3.4" type="car" depart="28921.39">
        <route edges="-324 -293 -299"/>
    </vehicle>
    <vehicle id="2.20" type="car" depart="28922.58">
        <route edges="-312 -293 -297 -289"/>
    </vehicle>
    <vehicle id="2.21" type="car" depart="28923.69">
        <route edges="-312 -293 -298 -295"/>
    </vehicle>
    <vehicle id="4.24" type="car" depart="28923.74">
        <route edges="-280 -306"/>
    </vehicle>
    <vehicle id="9.1" type="car" depart="28924.39">
        <route edges="-317 -283"/>
    </vehicle>
    <vehicle id="3.5" type="car" depart="28925.28">
        <route edges="-324 -293 -297 -289"/>
    </vehicle>
    <vehicle id="5.18" type="car" depart="28925.33">
        <route edges="-308 -307 -327 -281 -315 -323"/>
    </vehicle>
    <vehicle id="5.19" type="car" depart="28927.36">
        <route edges="-308 -307 -327 -281 -315 -322 -313 -284 -329"/>
    </vehicle>
    <vehicle id="5.20" type="car" depart="28932.28">
        <route edges="-308 -306"/>
    </vehicle>
    <vehicle id="5.21" type="car" depart="28932.72">
        <route edges="-308 -306"/>
    </vehicle>
    <vehicle id="3.6" type="car" depart="28933.33">
        <route edges="-324 -293 -298 -295"/>
    </vehicle>
    <vehicle id="5.22" type="car" depart="28933.57">
        <route edges="-308 -307 -327 -281 -314"/>
    </vehicle>
    <vehicle id="4.25" type="car" depart="28934.11">
        <route edges="-280 -307 -327 -281 -314"/>
    </vehicle>
    <vehicle id="4.26" type="car" depart="28934.27">
        <route edges="-280 -306"/>
    </vehicle>
    <vehicle id="3.7" type="car" depart="28936.17">
        <route edges="-324 -293 -298 -295"/>
    </vehicle>
    <vehicle id="1.0" type="car" depart="28939.87">
        <route edges="-309 -293 -297 -288 -286 -302 -323"/>
    </vehicle>
    <vehicle id="4.27" type="car" depart="28940.01">
        <route edges="-280 -307 -327 -281 -314"/>
    </vehicle>
    <vehicle id="2.22" type="car" depart="28940.41">
        <route edges="-312 -293 -299"/>
    </vehicle>
    <vehicle id="2.23" type="car" depart="28940.50">
        <route edges="-312 -293 -299"/>
    </vehicle>
    <vehicle id="4.28" type="car" depart="28940.64">
        <route edges="-280 -307 -329"/>
    </vehicle>
    <vehicle id="6.5" type="car" depart="28941.97">
        <route edges="-326 -305"/>
    </vehicle>
    <vehicle id="4.29" type="car" depart="28945.85">
        <route edges="-280 -307 -328 -306"/>
    </vehicle>
    <vehicle id="4.30" type="car" depart="28947.13">
        <route edges="-280 -307 -328 -304"/>
    </vehicle>
    <vehicle id="3.8" type="car" depart="28950.01">
        <route edges="-324 -295"/>
    </vehicle>
    <vehicle id="2.24" type="car" depart="28950.60">
        <route edges="-312 -293 -298 -295"/>
    </vehicle>
    <vehicle id="6.6" type="car" depart="28951.18">
        <route edges="-326 -307 -329"/>
    </vehicle>
    <vehicle id="4.31" type="car" depart="28954.28">
        <route edges="-280 -307 -328 -305"/>
    </vehicle>
    <vehicle id="4.32" type="car" depart="28954.30">
        <route edges="-280 -307 -329"/>
    </vehicle>
    <vehicle id="4.33" type="car" depart="28954.63">
        <route edges="-280 -307 -327 -281 -315 -321 -300 -285 -289"/>
    </vehicle>
    <vehicle id="4.34" type="car" depart="28959.65">
        <route edges="-280 -307 -327 -281 -314"/>
    </vehicle>
    <vehicle id="5.23" type="car" depart="28959.71">
        <route edges="-308 -307 -327 -281 -315 -322 -313 -284 -329"/>
    </vehicle>
    <vehicle id="4.35" type="car" depart="28960.73">
        <route edges="-280 -307 -328 -304"/>
    </vehicle>
    <vehicle id="2.25" type="car" depart="28961.00">
        <route edges="-312 -293 -297 -288 -286 -302 -322 -313 -284 -328 -304"/>
    </vehicle>
    <vehicle id="6.7" type="car" depart="28964.12">
        <route edges="-326 -307 -328 -304"/>
    </vehicle>
    <vehicle id="6.8" type="car" depart="28967.77">
        <route edges="-326 -305"/>
    </vehicle>
    <vehicle id="4.36" type="car" depart="28969.04">
        <route edges="-280 -307 -327 -281 -314"/>
    </vehicle>
    <vehicle id="6.9" type="car" depart="28971.81">
        <route edges="-326 -305"/>
    </vehicle>
    <vehicle id="5.24" type="car" depart="28972.54">
        <route edges="-308 -307 -327 -281 -314"/>
    </vehicle>
    <vehicle id="5.25" type="car" depart="28982.60">
        <route edges="-308 -307 -327 -281 -313 -284 -329"/>
    </vehicle>
    <vehicle id="8.1" type="car" depart="28982.85">
        <route edges="-325 -300 -285 -290 -299"/>
    </vehicle>
    <vehicle id="4.37" type="car" depart="28983.63">
        <route edges="-280 -307 -327 -281 -313 -284 -329"/>
    </vehicle>
    <vehicle id="6.10" type="car" depart="28986.10">
        <route edges="-326 -305"/>
    </vehicle>
    <vehicle id="4.38" type="car" depart="28989.16">
        <route edges="-280 -307 -329"/>
    </vehicle>
    <vehicle id="10.4" type="car" depart="28989.81">
        <route edges="-318 -282"/>
    </vehicle>
    <vehicle id="5.26" type="car" depart="28989.88">
        <route edges="-308 -307 -327 -281 -314"/>
    </vehicle>
    <vehicle id="10.5" type="car" depart="28989.92">
        <route edges="-318 -281 -313 -284 -329"/>
    </vehicle>
    <vehicle id="10.6" type="car" depart="28992.07">
        <route edges="-318 -281 -314"/>
    </vehicle>
    <vehicle id="3.9" type="car" depart="28992.49">
        <route edges="-324 -293 -298 -295"/>
    </vehicle>
    <vehicle id="4.39" type="car" depart="28993.84">
        <route edges="-280 -307 -327 -281 -313 -282"/>
    </vehicle>
    <vehicle id="4.40" type="car" depart="28995.88">
        <route edges="-280 -307 -328 -304"/>
    </vehicle>
    <vehicle id="6.11" type="car" depart="28998.38">
        <route edges="-326 -305"/>
    </vehicle>
    <vehicle id="2.26" type="car" depart="28998.84">
        <route edges="-312 -293 -297 -288 -286 -302 -322 -313 -284 -329"/>
    </vehicle>
    <vehicle id="2.27" type="car" depart="29003.90">
        <route edges="-312 -293 -297 -288 -286 -302 -322 -314"/>
    </vehicle>
    <vehicle id="5.27" type="car" depart="29004.11">
        <route edges="-308 -307 -327 -281 -315 -323"/>
    </vehicle>
    <vehicle id="4.41" type="car" depart="29005.19">
        <route edges="-280 -307 -328 -305"/>
    </vehicle>
    <vehicle id="4.42" type="car" depart="29006.00">
        <route edges="-280 -307 -327 -281 -315 -321 -300 -285 -290 -299"/>
    </vehicle>
    <vehicle id="4.43" type="car" depart="29006.48">
        <route edges="-280 -307 -329"/>
    </vehicle>
    <vehicle id="7.7" type="car" depart="29006.82">
        <route edges="-319 -302 -322 -313 -284 -328 -305"/>
    </vehicle>
    <vehicle id="4.44" type="car" depart="29007.93">
        <route edges="-280 -307 -327 -281 -314"/>
    </vehicle>
    <vehicle id="2.28" type="car" depart="29009.98">
        <route edges="-312 -293 -297 -289"/>
    </vehicle>
    <vehicle id="4.45" type="car" depart="29011.97">
        <route edges="-280 -307 -327 -281 -314"/>
    </vehicle>
    <vehicle id="5.28" type="car" depart="29012.30">
        <route edges="-308 -307 -327 -281 -314"/>
    </vehicle>
    <vehicle id="2.29" type="car" depart="29013.53">
        <route edges="-312 -293 -299"/>
    </vehicle>
    <vehicle id="2.30" type="car" depart="29014.13">
        <route edges="-312 -293 -299"/>
    </vehicle>
    <vehicle id="4.46" type="car" depart="29015.20">
        <route edges="-280 -306"/>
    </vehicle>
    <vehicle id="2.31" type="car" depart="29016.72">
        <route edges="-312 -293 -299"/>
    </vehicle>
    <vehicle id="2.32" type="car" depart="29016.94">
        <route edges="-312 -293 -299"/>
    </vehicle>
    <vehicle id="2.33" type="car" depart="29018.48">
        <route edges="-312 -293 -299"/>
    </vehicle>
    <vehicle id="5.29" type="car" depart="29018.60">
        <route edges="-308 -307 -329"/>
    </vehicle>
    <vehicle id="2.34" type="car" depart="29019.35">
        <route edges="-312 -293 -299"/>
    </vehicle>
    <vehicle id="4.47" type="car" depart="29022.13">
        <route edges="-280 -307 -327 -281 -313 -282"/>
    </vehicle>
    <vehicle id="7.8" type="car" depart="29022.76">
        <route edges="-319 -300 -287"/>
    </vehicle>
    <vehicle id="4.48" type="car" depart="29022.93">
        <route edges="-280 -307 -327 -281 -313 -284 -329"/>
    </vehicle>
    <vehicle id="7.9" type="car" depart="29024.33">
        <route edges="-319 -302 -323"/>
    </vehicle>
    <vehicle id="6.12" type="car" depart="29028.10">
        <route edges="-326 -305"/>
    </vehicle>
    <vehicle id="6.13" type="car" depart="29028.32">
        <route edges="-326 -307 -327 -281 -314"/>
    </vehicle>
    <vehicle id="6.14" type="car" depart="29028.54">
        <route edges="-326 -307 -329"/>
    </vehicle>
    <vehicle id="5.30" type="car" depart="29029.73">
        <route edges="-308 -307 -327 -281 -313 -284 -329"/>
    </vehicle>
    <vehicle id="2.35" type="car" depart="29034.39">
        <route edges="-312 -293 -299"/>
    </vehicle>
    <vehicle id="4.49" type="car" depart="29035.17">
        <route edges="-280 -306"/>
    </vehicle>
    <vehicle id="5.31" type="car" depart="29035.35">
        <route edges="-308 -306"/>
    </vehicle>
    <vehicle id="4.50" type="car" depart="29035.53">
        <route edges="-280 -307 -329"/>
    </vehicle>
    <vehicle id="2.36" type="car" depart="29038.63">
        <route edges="-312 -293 -297 -288 -286 -303"/>
    </vehicle>
    <vehicle id="4.51" type="car" depart="29039.19">
        <route edges="-280 -306"/>
    </vehicle>
    <vehicle id="5.32" type="car" depart="29042.28">
        <route edges="-308 -307 -327 -281 -314"/>
    </vehicle>
    <vehicle id="6.15" type="car" depart="29043.79">
        <route edges="-326 -307 -328 -305"/>
    </vehicle>
    <vehicle id="5.33" type="car" depart="29050.84">
        <route edges="-308 -307 -327 -281 -314"/>
    </vehicle>
    <vehicle id="4.52" type="car" depart="29053.33">
        <route edges="-280 -307 -327 -281 -314"/>
    </vehicle>
    <vehicle id="6.16" type="car" depart="29053.44">
        <route edges="-326 -305"/>
    </vehicle>
    <vehicle id="5.34" type="car" depart="29055.41">
        <route edges="-308 -307 -329"/>
    </vehicle>
    <vehicle id="2.37" type="car" depart="29055.98">
        <route edges="-312 -293 -299"/>
    </vehicle>
    <vehicle id="4.53" type="car" depart="29056.03">
        <route edges="-280 -307 -329"/>
    </vehicle>
    <vehicle id="7.10" type="car" depart="29056.20">
        <route edges="-319 -300 -285 -290 -298 -296"/>
    </vehicle>
    <vehicle id="5.35" type="car" depart="29058.51">
        <route edges="-308 -304"/>
    </vehicle>
    <vehicle id="4.54" type="car" depart="29059.17">
        <route edges="-280 -307 -328 -306"/>
    </vehicle>
    <vehicle id="2.38" type="car" depart="29061.75">
        <route edges="-312 -293 -299"/>
    </vehicle>
    <vehicle id="2.39" type="car" depart="29062.58">
        <route edges="-312 -293 -298 -295"/>
    </vehicle>
    <vehicle id="6.17" type="car" depart="29062.94">
        <route edges="-326 -305"/>
    </vehicle>
    <vehicle id="2.40" type="car" depart="29066.73">
        <route edges="-312 -293 -299"/>
    </vehicle>
    <vehicle id="3.10" type="car" depart="29067.00">
        <route edges="-324 -293 -297 -289"/>
    </vehicle>
    <vehicle id="2.41" type="car" depart="29067.72">
        <route edges="-312 -293 -298 -295"/>
    </vehicle>
    <vehicle id="1.1" type="car" depart="29070.44">
        <route edges="-309 -293 -298 -295"/>
    </vehicle>
    <vehicle id="5.36" type="car" depart="29071.68">
        <route edges="-308 -306"/>
    </vehicle>
    <vehicle id="6.18" type="car" depart="29072.21">
        <route edges="-326 -307 -329"/>
    </vehicle>
    <vehicle id="9.2" type="car" depart="29073.24">
        <route edges="-317 -284 -327 -281 -314"/>
    </vehicle>
    <vehicle id="7.11" type="car" depart="29076.36">
        <route edges="-319 -300 -285 -289"/>
    </vehicle>
    <vehicle id="6.19" type="car" depart="29077.37">
        <route edges="-326 -307 -327 -281 -315 -323"/>
    </vehicle>
    <vehicle id="4.55" type="car" depart="29077.66">
        <route edges="-280 -307 -328 -305"/>
    </vehicle>
    <vehicle id="5.37" type="car" depart="29078.35">
        <route edges="-308 -306"/>
    </vehicle>
    <vehicle id="4.56" type="car" depart="29079.62">
        <route edges="-280 -307 -327 -281 -314"/>
    </vehicle>
    <vehicle id="6.20" type="car" depart="29080.44">
        <route edges="-326 -307 -329"/>
    </vehicle>
    <vehicle id="2.42" type="car" depart="29081.76">
        <route edges="-312 -293 -299"/>
    </vehicle>
    <vehicle id="6.21" type="car" depart="29082.45">
        <route edges="-326 -305"/>
    </vehicle>
    <vehicle id="3.11" type="car" depart="29093.79">
        <route edges="-324 -293 -297 -288 -286 -302 -322 -314"/>
    </vehicle>
    <vehicle id="7.12" type="car" depart="29098.38">
        <route edges="-319 -300 -287"/>
    </vehicle>
    <vehicle id="4.57" type="car" depart="29103.80">
        <route edges="-280 -307 -329"/>
    </vehicle>
    <vehicle id="2.43" type="car" depart="29104.22">
        <route edges="-312 -293 -297 -288 -286 -302 -321 -300 -285 -290 -298 -295"/>
    </vehicle>
    <vehicle id="5.38" type="car" depart="29105.05">
        <route edges="-308 -304"/>
    </vehicle>
    <vehicle id="4.58" type="car" depart="29105.89">
        <route edges="-280 -307 -329"/>
    </vehicle>
    <vehicle id="2.44" type="car" depart="29108.56">
        <route edges="-312 -293 -297 -288 -286 -302 -322 -313 -284 -329"/>
    </vehicle>
    <vehicle id="2.45" type="car" depart="29109.58">
        <route edges="-312 -293 -299"/>
    </vehicle>
    <vehicle id="4.59" type="car" depart="29110.30">
        <route edges="-280 -307 -328 -305"/>
    </vehicle>
    <vehicle id="4.60" type="car" depart="29111.32">
        <route edges="-280 -307 -329"/>
    </vehicle>
    <vehicle id="5.39" type="car" depart="29112.85">
        <route edges="-308 -304"/>
    </vehicle>
    <vehicle id="2.46" type="car" depart="29113.84">
        <route edges="-312 -293 -298 -295"/>
    </vehicle>
    <vehicle id="4.61" type="car" depart="29114.11">
        <route edges="-280 -307 -327 -281 -314"/>
    </vehicle>
    <vehicle id="5.40" type="car" depart="29114.76">
        <route edges="-308 -307 -328 -304"/>
    </vehicle>
    <vehicle id="5.41" type="car" depart="29115.96">
        <route edges="-308 -306"/>
    </vehicle>
    <vehicle id="6.22" type="car" depart="29116.10">
        <route edges="-326 -304"/>
    </vehicle>
    <vehicle id="10.7" type="car" depart="29117.23">
        <route edges="-318 -281 -315 -323"/>
    </vehicle>
    <vehicle id="5.42" type="car" depart="29122.55">
        <route edges="-308 -307 -327 -281 -314"/>
    </vehicle>
    <vehicle id="5.43" type="car" depart="29122.85">
        <route edges="-308 -307 -328 -304"/>
    </vehicle>
    <vehicle id="7.13" type="car" depart="29125.38">
        <route edges="-319 -300 -287"/>
    </vehicle>
    <vehicle id="4.62" type="car" depart="29127.40">
        <route edges="-280 -307 -328 -304"/>
    </vehicle>
    <vehicle id="10.8" type="car" depart="29128.16">
        <route edges="-318 -281 -314"/>
    </vehicle>
    <vehicle id="9.3" type="car" depart="29128.88">
        <route edges="-317 -284 -329"/>
    </vehicle>
    <vehicle id="4.63" type="car" depart="29130.36">
        <route edges="-280 -307 -327 -281 -313 -284 -329"/>
    </vehicle>
    <vehicle id="7.14" type="car" depart="29130.69">
        <route edges="-319 -300 -285 -290 -299"/>
    </vehicle>
    <vehicle id="2.47" type="car" depart="29130.87">
        <route edges="-312 -293 -299"/>
    </vehicle>
    <vehicle id="4.64" type="car" depart="29132.90">
        <route edges="-280 -306"/>
    </vehicle>
    <vehicle id="2.48" type="car" depart="29134.32">
        <route edges="-312 -293 -299"/>
    </vehicle>
    <vehicle id="4.65" type="car" depart="29136.49">
        <route edges="-280 -307 -327 -281 -315 -322 -314"/>
    </vehicle>
    <vehicle id="2.49" type="car" depart="29139.72">
        <route edges="-312 -293 -299"/>
    </vehicle>
    <vehicle id="1.2" type="car" depart="29140.68">
        <route edges="-309 -293 -299"/>
    </vehicle>
    <vehicle id="2.50" type="car" depart="29140.77">
        <route edges="-312 -293 -297 -289"/>
    </vehicle>
    <vehicle id="4.66" type="car" depart="29142.40">
        <route edges="-280 -307 -327 -281 -314"/>
    </vehicle>
    <vehicle id="6.23" type="car" depart="29143.26">
        <route edges="-326 -305"/>
    </vehicle>
    <vehicle id="5.44" type="car" depart="29145.57">
        <route edges="-308 -304"/>
    </vehicle>
    <vehicle id="5.45" type="car" depart="29146.26">
        <route edges="-308 -307 -328 -305"/>
    </vehicle>
    <vehicle id="10.9" type="car" depart="29146.54">
        <route edges="-318 -281 -314"/>
    </vehicle>
    <vehicle id="6.24" type="car" depart="29148.32">
        <route edges="-326 -304"/>
    </vehicle>
    <vehicle id="2.51" type="car" depart="29150.47">
        <route edges="-312 -293 -298 -295"/>
    </vehicle>
    <vehicle id="3.12" type="car" depart="29151.63">
        <route edges="-324 -293 -297 -288 -286 -302 -322 -313 -284 -328 -304"/>
    </vehicle>
    <vehicle id="5.46" type="car" depart="29154.52">
        <route edges="-308 -304"/>
    </vehicle>
    <vehicle id="2.52" type="car" depart="29155.22">
        <route edges="-312 -293 -297 -289"/>
    </vehicle>
    <vehicle id="1.3" type="car" depart="29161.12">
        <route edges="-309 -293 -297 -288 -286 -302 -323"/>
    </vehicle>
    <vehicle id="5.47" type="car" depart="29162.12">
        <route edges="-308 -307 -329"/>
    </vehicle>
    <vehicle id="4.67" type="car" depart="29164.05">
        <route edges="-280 -307 -329"/>
    </vehicle>
    <vehicle id="10.10" type="car" depart="29169.23">
        <route edges="-318 -282"/>
    </vehicle>
    <vehicle id="5.48" type="car" depart="29170.78">
        <route edges="-308 -306"/>
    </vehicle>
    <vehicle id="5.49" type="car" depart="29172.35">
        <route edges="-308 -307 -327 -281 -314"/>
    </vehicle>
    <vehicle id="7.15" type="car" depart="29173.04">
        <route edges="-319 -300 -285 -290 -299"/>
    </vehicle>
    <vehicle id="4.68" type="car" depart="29174.16">
        <route edges="-280 -307 -327 -282"/>
    </vehicle>
    <vehicle id="3.13" type="car" depart="29176.07">
        <route edges="-324 -293 -297 -288 -286 -303"/>
    </vehicle>
    <vehicle id="4.69" type="car" depart="29176.29">
        <route edges="-280 -306"/>
    </vehicle>
    <vehicle id="2.53" type="car" depart="29176.60">
        <route edges="-312 -296"/>
    </vehicle>
    <vehicle id="4.70" type="car" depart="29178.25">
        <route edges="-280 -306"/>
    </vehicle>