<?xml version='1.0' encoding='utf-8'?>
<routes><vType id="car" type="passenger" /><flow id="1" begin="28800.0" end="29700.0" from="-309" number="9" type="car" /><flow id="2" begin="28800.0" end="29700.0" from="-312" number="123" type="car" /><flow id="3" begin="28800.0" end="29700.0" from="-324" number="29" type="car" /><flow id="4" begin="28800.0" end="29700.0" from="-280" number="186" type="car" /><flow id="5" begin="28800.0" end="29700.0" from="-308" number="98" type="car" /><flow id="6" begin="28800.0" end="29700.0" from="-326" number="72" type="car" /><flow id="7" begin="28800.0" end="29700.0" from="-319" number="39" type="car" /><flow id="8" begin="28800.0" end="29700.0" from="-325" number="7" type="car" /><flow id="9" begin="28800.0" end="29700.0" from="-317" number="14" type="car" /><flow id="10" begin="28800.0" end="29700.0" from="-318" number="28" type="car" /><flow id="11" begin="29700.0" end="30600.0" from="-309" number="10" type="car" /><flow id="12" begin="29700.0" end="30600.0" from="-312" number="115" type="car" /><flow id="13" begin="29700.0" end="30600.0" from="-324" number="29" type="car" /><flow id="14" begin="29700.0" end="30600.0" from="-280" number="192" type="car" /><flow id="15" begin="29700.0" end="30600.0" from="-308" number="105" type="car" /><flow id="16" begin="29700.0" end="30600.0" from="-326" number="90" type="car" /><flow id="17" begin="29700.0" end="30600.0" from="-319" number="36" type="car" /><flow id="18" begin="29700.0" end="30600.0" from="-325" number="6" type="car" /><flow id="19" begin="29700.0" end="30600.0" from="-317" number="10" type="car" /><flow id="20" begin="29700.0" end="30600.0" from="-318" number="27" type="car" /><flow id="21" begin="30600.0" end="31500.0" from="-309" number="6" type="car" /><flow id="22" begin="30600.0" end="31500.0" from="-312" number="133" type="car" /><flow id="23" begin="30600.0" end="31500.0" from="-324" number="24" type="car" /><flow id="24" begin="30600.0" end="31500.0" from="-280" number="211" type="car" /><flow id="25" begin="30600.0" end="31500.0" from="-308" number="114" type="car" /><flow id="26" begin="30600.0" end="31500.0" from="-326" number="95" type="car" /><flow id="27" begin="30600.0" end="31500.0" from="-319" number="57" type="car" /><flow id="28" begin="30600.0" end="31500.0" from="-325" number="1" type="car" /><flow id="29" begin="30600.0" end="31500.0" from="-317" number="13" type="car" /><flow id="30" begin="30600.0" end="31500.0" from="-318" number="25" type="car" /><flow id="31" begin="31500.0" end="32400.0" from="-309" number="18" type="car" /><flow id="32" begin="31500.0" end="32400.0" from="-312" number="160" type="car" /><flow id="33" begin="31500.0" end="32400.0" from="-324" number="40" type="car" /><flow id="34" begin="31500.0" end="32400.0" from="-280" number="196" type="car" /><flow id="35" begin="31500.0" end="32400.0" from="-308" number="100" type="car" /><flow id="36" begin="31500.0" end="32400.0" from="-326" number="106" type="car" /><flow id="37" begin="31500.0" end="32400.0" from="-319" number="35" type="car" /><flow id="38" begin="31500.0" end="32400.0" from="-325" number="8" type="car" /><flow id="39" begin="31500.0" end="32400.0" from="-317" number="12" type="car" /><flow id="40" begin="31500.0" end="32400.0" from="-318" number="27" type="car" /><flow id="41" begin="32400.0" end="33300.0" from="-309" number="10" type="car" /><flow id="42" begin="32400.0" end="33300.0" from="-312" number="143" type="car" /><flow id="43" begin="32400.0" end="33300.0" from="-324" number="31" type="car" /><flow id="44" begin="32400.0" end="33300.0" from="-280" number="136" type="car" /><flow id="45" begin="32400.0" end="33300.0" from="-308" number="148" type="car" /><flow id="46" begin="32400.0" end="33300.0" from="-326" number="87" type="car" /><flow id="47" begin="32400.0" end="33300.0" from="-319" number="33" type="car" /><flow id="48" begin="32400.0" end="33300.0" from="-325" number="8" type="car" /><flow id="49" begin="32400.0" end="33300.0" from="-317" number="9" type="car" /><flow id="50" begin="32400.0" end="33300.0" from="-318" number="21" type="car" /><flow id="51" begin="33300.0" end="34200.0" from="-309" number="10" type="car" /><flow id="52" begin="33300.0" end="34200.0" from="-312" number="148" type="car" /><flow id="53" begin="33300.0" end="34200.0" from="-324" number="26" type="car" /><flow id="54" begin="33300.0" end="34200.0" from="-280" number="163" type="car" /><flow id="55" begin="33300.0" end="34200.0" from="-308" number="130" type="car" /><flow id="56" begin="33300.0" end="34200.0" from="-326" number="111" type="car" /><flow id="57" begin="33300.0" end="34200.0" from="-319" number="60" type="car" /><flow id="58" begin="33300.0" end="34200.0" from="-325" number="5" type="car" /><flow id="59" begin="33300.0" end="34200.0" from="-317" number="13" type="car" /><flow id="60" begin="33300.0" end="34200.0" from="-318" number="29" type="car" /><flow id="61" begin="34200.0" end="35100.0" from="-309" number="10" type="car" /><flow id="62" begin="34200.0" end="35100.0" from="-312" number="161" type="car" /><flow id="63" begin="34200.0" end="35100.0" from="-324" number="24" type="car" /><flow id="64" begin="34200.0" end="35100.0" from="-280" number="134" type="car" /><flow id="65" begin="34200.0" end="35100.0" from="-308" number="139" type="car" /><flow id="66" begin="34200.0" end="35100.0" from="-326" number="92" type="car" /><flow id="67" begin="34200.0" end="35100.0" from="-319" number="63" type="car" /><flow id="68" begin="34200.0" end="35100.0" from="-325" number="19" type="car" /><flow id="69" begin="34200.0" end="35100.0" from="-317" number="8" type="car" /><flow id="70" begin="34200.0" end="35100.0" from="-318" number="34" type="car" /><flow id="71" begin="35100.0" end="36000.0" from="-309" number="12" type="car" /><flow id="72" begin="35100.0" end="36000.0" from="-312" number="161" type="car" /><flow id="73" begin="35100.0" end="36000.0" from="-324" number="18" type="car" /><flow id="74" begin="35100.0" end="36000.0" from="-280" number="153" type="car" /><flow id="75" begin="35100.0" end="36000.0" from="-308" number="173" type="car" /><flow id="76" begin="35100.0" end="36000.0" from="-326" number="91" type="car" /><flow id="77" begin="35100.0" end="36000.0" from="-319" number="54" type="car" /><flow id="78" begin="35100.0" end="36000.0" from="-325" number="10" type="car" /><flow id="79" begin="35100.0" end="36000.0" from="-317" number="12" type="car" /><flow id="80" begin="35100.0" end="36000.0" from="-318" number="24" type="car" /></routes>