<?xml version="1.0" encoding="UTF-8"?>

<!-- generated on 2025-01-24 13:38:53 by Eclipse SUMO jtrrouter Version 1.21.0
<jtrrouterConfiguration xmlns:xsi="http://www.w3.org/2001/XMLSchema-instance" xsi:noNamespaceSchemaLocation="http://sumo.dlr.de/xsd/jtrrouterConfiguration.xsd">

    <input>
        <net-file value="C:/Users/xh8/ornl_workspace/github_workspace/Real-Twin/datasets/chattanooga/output/SUMO/chatt.net.xml"/>
        <route-files value="C:/Users/xh8/ornl_workspace/github_workspace/Real-Twin/datasets/chattanooga/output/SUMO/chatt.flow.xml"/>
        <turn-ratio-files value="C:/Users/xh8/ornl_workspace/github_workspace/Real-Twin/datasets/chattanooga/output/SUMO/chatt.turn.xml"/>
    </input>

    <output>
        <output-file value="C:/Users/xh8/ornl_workspace/github_workspace/Real-Twin/datasets/chattanooga/output/SUMO/chatt_Seed101.rou.xml"/>
    </output>

    <processing>
        <randomize-flows value="true"/>
        <remove-loops value="True"/>
        <accept-all-destinations value="true"/>
    </processing>

    <random_number>
        <seed value="101"/>
    </random_number>

</jtrrouterConfiguration>
-->

<routes xmlns:xsi="http://www.w3.org/2001/XMLSchema-instance" xsi:noNamespaceSchemaLocation="http://sumo.dlr.de/xsd/routes_file.xsd">
    <vType id="car"/>
    <vehicle id="6.0" type="car" depart="28801.10">
        <route edges="-326 -305"/>
    </vehicle>
    <vehicle id="5.0" type="car" depart="28801.37">
        <route edges="-308 -307 -327 -281 -314"/>
    </vehicle>
    <vehicle id="8.0" type="car" depart="28803.75">
        <route edges="-325 -301"/>
    </vehicle>
    <vehicle id="2.0" type="car" depart="28804.06">
        <route edges="-312 -293 -297 -288 -286 -302 -323"/>
    </vehicle>
    <vehicle id="10.0" type="car" depart="28804.19">
        <route edges="-318 -281 -313 -284 -327 -283"/>
    </vehicle>
    <vehicle id="4.0" type="car" depart="28806.32">
        <route edges="-280 -307 -329"/>
    </vehicle>
    <vehicle id="4.1" type="car" depart="28809.33">
        <route edges="-280 -306"/>
    </vehicle>
    <vehicle id="4.2" type="car" depart="28809.99">
        <route edges="-280 -307 -328 -304"/>
    </vehicle>
    <vehicle id="4.3" type="car" depart="28812.60">
        <route edges="-280 -307 -327 -281 -314"/>
    </vehicle>
    <vehicle id="2.1" type="car" depart="28812.79">
        <route edges="-312 -293 -298 -295"/>
    </vehicle>
    <vehicle id="5.1" type="car" depart="28813.15">
        <route edges="-308 -307 -329"/>
    </vehicle>
    <vehicle id="2.2" type="car" depart="28815.44">
        <route edges="-312 -293 -298 -295"/>
    </vehicle>
    <vehicle id="4.4" type="car" depart="28816.83">
        <route edges="-280 -307 -329"/>
    </vehicle>
    <vehicle id="9.0" type="car" depart="28817.48">
        <route edges="-317 -283"/>
    </vehicle>
    <vehicle id="10.1" type="car" depart="28818.75">
        <route edges="-318 -281 -314"/>
    </vehicle>
    <vehicle id="7.0" type="car" depart="28818.86">
        <route edges="-319 -300 -287"/>
    </vehicle>
    <vehicle id="3.0" type="car" depart="28820.95">
        <route edges="-324 -293 -299"/>
    </vehicle>
    <vehicle id="7.1" type="car" depart="28821.01">
        <route edges="-319 -300 -287"/>
    </vehicle>
    <vehicle id="4.5" type="car" depart="28825.05">
        <route edges="-280 -307 -329"/>
    </vehicle>
    <vehicle id="5.2" type="car" depart="28827.04">
        <route edges="-308 -307 -328 -304"/>
    </vehicle>
    <vehicle id="3.1" type="car" depart="28829.47">
        <route edges="-324 -295"/>
    </vehicle>
    <vehicle id="2.3" type="car" depart="28832.82">
        <route edges="-312 -293 -297 -288 -286 -302 -322 -313 -284 -329"/>
    </vehicle>
    <vehicle id="4.6" type="car" depart="28834.65">
        <route edges="-280 -307 -327 -281 -313 -282"/>
    </vehicle>
    <vehicle id="2.4" type="car" depart="28835.39">
        <route edges="-312 -293 -297 -289"/>
    </vehicle>
    <vehicle id="10.2" type="car" depart="28835.61">
        <route edges="-318 -281 -314"/>
    </vehicle>
    <vehicle id="2.5" type="car" depart="28836.05">
        <route edges="-312 -293 -299"/>
    </vehicle>
    <vehicle id="4.7" type="car" depart="28838.97">
        <route edges="-280 -307 -327 -281 -314"/>
    </vehicle>
    <vehicle id="2.6" type="car" depart="28841.98">
        <route edges="-312 -293 -297 -288 -286 -302 -322 -313 -284 -329"/>
    </vehicle>
    <vehicle id="2.7" type="car" depart="28843.08">
        <route edges="-312 -293 -299"/>
    </vehicle>
    <vehicle id="5.3" type="car" depart="28843.46">
        <route edges="-308 -306"/>
    </vehicle>
    <vehicle id="3.2" type="car" depart="28843.54">
        <route edges="-324 -293 -299"/>
    </vehicle>
    <vehicle id="4.8" type="car" depart="28845.98">
        <route edges="-280 -307 -329"/>
    </vehicle>
    <vehicle id="2.8" type="car" depart="28849.15">
        <route edges="-312 -293 -297 -288 -286 -302 -322 -313 -284 -328 -305"/>
    </vehicle>
    <vehicle id="2.9" type="car" depart="28850.50">
        <route edges="-312 -293 -298 -295"/>
    </vehicle>
    <vehicle id="2.10" type="car" depart="28852.12">
        <route edges="-312 -293 -297 -289"/>
    </vehicle>
    <vehicle id="3.3" type="car" depart="28852.61">
        <route edges="-324 -293 -297 -288 -286 -302 -323"/>
    </vehicle>
    <vehicle id="4.9" type="car" depart="28852.73">
        <route edges="-280 -307 -329"/>
    </vehicle>
    <vehicle id="2.11" type="car" depart="28853.29">
        <route edges="-312 -293 -299"/>
    </vehicle>
    <vehicle id="5.4" type="car" depart="28853.63">
        <route edges="-308 -307 -327 -281 -315 -321 -300 -285 -289"/>
    </vehicle>
    <vehicle id="6.1" type="car" depart="28853.78">
        <route edges="-326 -304"/>
    </vehicle>
    <vehicle id="4.10" type="car" depart="28854.26">
        <route edges="-280 -307 -327 -281 -313 -284 -329"/>
    </vehicle>
    <vehicle id="2.12" type="car" depart="28858.87">
        <route edges="-312 -293 -299"/>
    </vehicle>
    <vehicle id="4.11" type="car" depart="28862.91">
        <route edges="-280 -307 -327 -281 -314"/>
    </vehicle>
    <vehicle id="4.12" type="car" depart="28864.49">
        <route edges="-280 -307 -328 -305"/>
    </vehicle>
    <vehicle id="4.13" type="car" depart="28867.48">
        <route edges="-280 -306"/>
    </vehicle>
    <vehicle id="4.14" type="car" depart="28869.32">
        <route edges="-280 -307 -329"/>
    </vehicle>
    <vehicle id="4.15" type="car" depart="28871.91">
        <route edges="-280 -306"/>
    </vehicle>
    <vehicle id="9.1" type="car" depart="28872.72">
        <route edges="-317 -281 -314"/>
    </vehicle>
    <vehicle id="5.5" type="car" depart="28874.51">
        <route edges="-308 -307 -327 -281 -314"/>
    </vehicle>
    <vehicle id="2.13" type="car" depart="28874.68">
        <route edges="-312 -293 -297 -289"/>
    </vehicle>
    <vehicle id="4.16" type="car" depart="28876.13">
        <route edges="-280 -307 -327 -281 -314"/>
    </vehicle>
    <vehicle id="4.17" type="car" depart="28876.66">
        <route edges="-280 -307 -328 -304"/>
    </vehicle>
    <vehicle id="2.14" type="car" depart="28877.26">
        <route edges="-312 -293 -297 -288 -287"/>
    </vehicle>
    <vehicle id="10.3" type="car" depart="28879.35">
        <route edges="-318 -282"/>
    </vehicle>
    <vehicle id="5.6" type="car" depart="28880.88">
        <route edges="-308 -306"/>
    </vehicle>
    <vehicle id="3.4" type="car" depart="28883.04">
        <route edges="-324 -295"/>
    </vehicle>
    <vehicle id="2.15" type="car" depart="28883.80">
        <route edges="-312 -293 -299"/>
    </vehicle>
    <vehicle id="4.18" type="car" depart="28883.91">
        <route edges="-280 -307 -327 -281 -314"/>
    </vehicle>
    <vehicle id="7.2" type="car" depart="28884.57">
        <route edges="-319 -300 -285 -289"/>
    </vehicle>
    <vehicle id="4.19" type="car" depart="28887.80">
        <route edges="-280 -307 -327 -281 -315 -322 -314"/>
    </vehicle>
    <vehicle id="6.2" type="car" depart="28891.89">
        <route edges="-326 -307 -327 -281 -313 -284 -329"/>
    </vehicle>
    <vehicle id="4.20" type="car" depart="28896.40">
        <route edges="-280 -307 -327 -281 -314"/>
    </vehicle>
    <vehicle id="5.7" type="car" depart="28897.26">
        <route edges="-308 -304"/>
    </vehicle>
    <vehicle id="5.8" type="car" depart="28898.23">
        <route edges="-308 -304"/>
    </vehicle>
    <vehicle id="4.21" type="car" depart="28903.08">
        <route edges="-280 -307 -329"/>
    </vehicle>
    <vehicle id="5.9" type="car" depart="28904.93">
        <route edges="-308 -307 -327 -281 -314"/>
    </vehicle>
    <vehicle id="4.22" type="car" depart="28908.21">
        <route edges="-280 -307 -329"/>
    </vehicle>
    <vehicle id="7.3" type="car" depart="28908.63">
        <route edges="-319 -302 -322 -314"/>
    </vehicle>
    <vehicle id="3.5" type="car" depart="28909.13">
        <route edges="-324 -293 -297 -289"/>
    </vehicle>
    <vehicle id="4.23" type="car" depart="28909.37">
        <route edges="-280 -307 -329"/>
    </vehicle>
    <vehicle id="3.6" type="car" depart="28911.97">
        <route edges="-324 -293 -297 -288 -287"/>
    </vehicle>
    <vehicle id="4.24" type="car" depart="28914.07">
        <route edges="-280 -306"/>
    </vehicle>
    <vehicle id="3.7" type="car" depart="28915.25">
        <route edges="-324 -293 -298 -295"/>
    </vehicle>
    <vehicle id="4.25" type="car" depart="28916.25">
        <route edges="-280 -307 -328 -304"/>
    </vehicle>
    <vehicle id="4.26" type="car" depart="28916.64">
        <route edges="-280 -307 -328 -305"/>
    </vehicle>
    <vehicle id="4.27" type="car" depart="28916.85">
        <route edges="-280 -307 -328 -304"/>
    </vehicle>
    <vehicle id="2.16" type="car" depart="28917.01">
        <route edges="-312 -293 -298 -295"/>
    </vehicle>
    <vehicle id="6.3" type="car" depart="28917.07">
        <route edges="-326 -305"/>
    </vehicle>
    <vehicle id="7.4" type="car" depart="28918.13">
        <route edges="-319 -303"/>
    </vehicle>
    <vehicle id="6.4" type="car" depart="28920.63">
        <route edges="-326 -307 -328 -304"/>
    </vehicle>
    <vehicle id="2.17" type="car" depart="28921.86">
        <route edges="-312 -293 -297 -288 -286 -302 -322 -313 -284 -327 -281 -314"/>
    </vehicle>
    <vehicle id="4.28" type="car" depart="28922.47">
        <route edges="-280 -307 -329"/>
    </vehicle>
    <vehicle id="9.2" type="car" depart="28923.85">
        <route edges="-317 -284 -329"/>
    </vehicle>
    <vehicle id="5.10" type="car" depart="28926.45">
        <route edges="-308 -307 -328 -306"/>
    </vehicle>
    <vehicle id="5.11" type="car" depart="28929.61">
        <route edges="-308 -307 -329"/>
    </vehicle>
    <vehicle id="4.29" type="car" depart="28930.00">
        <route edges="-280 -307 -327 -281 -314"/>
    </vehicle>
    <vehicle id="4.30" type="car" depart="28930.54">
        <route edges="-280 -306"/>
    </vehicle>
    <vehicle id="4.31" type="car" depart="28934.96">
        <route edges="-280 -307 -327 -281 -314"/>
    </vehicle>
    <vehicle id="5.12" type="car" depart="28935.02">
        <route edges="-308 -304"/>
    </vehicle>
    <vehicle id="6.5" type="car" depart="28935.60">
        <route edges="-326 -305"/>
    </vehicle>
    <vehicle id="6.6" type="car" depart="28935.84">
        <route edges="-326 -305"/>
    </vehicle>
    <vehicle id="2.18" type="car" depart="28940.84">
        <route edges="-312 -293 -297 -289"/>
    </vehicle>
    <vehicle id="7.5" type="car" depart="28943.23">
        <route edges="-319 -303"/>
    </vehicle>
    <vehicle id="4.32" type="car" depart="28947.45">
        <route edges="-280 -307 -329"/>
    </vehicle>
    <vehicle id="2.19" type="car" depart="28951.26">
        <route edges="-312 -293 -297 -289"/>
    </vehicle>
    <vehicle id="7.6" type="car" depart="28951.49">
        <route edges="-319 -300 -285 -290 -299"/>
    </vehicle>
    <vehicle id="10.4" type="car" depart="28951.54">
        <route edges="-318 -281 -314"/>
    </vehicle>
    <vehicle id="2.20" type="car" depart="28952.38">
        <route edges="-312 -293 -299"/>
    </vehicle>
    <vehicle id="4.33" type="car" depart="28952.60">
        <route edges="-280 -307 -327 -281 -315 -322 -314"/>
    </vehicle>
    <vehicle id="2.21" type="car" depart="28953.13">
        <route edges="-312 -293 -297 -288 -286 -302 -322 -313 -284 -328 -305"/>
    </vehicle>
    <vehicle id="10.5" type="car" depart="28953.47">
        <route edges="-318 -282"/>
    </vehicle>
    <vehicle id="4.34" type="car" depart="28955.08">
        <route edges="-280 -307 -328 -304"/>
    </vehicle>
    <vehicle id="10.6" type="car" depart="28958.66">
        <route edges="-318 -281 -314"/>
    </vehicle>
    <vehicle id="4.35" type="car" depart="28959.12">
        <route edges="-280 -307 -328 -304"/>
    </vehicle>
    <vehicle id="5.13" type="car" depart="28959.14">
        <route edges="-308 -306"/>
    </vehicle>
    <vehicle id="5.14" type="car" depart="28959.15">
        <route edges="-308 -306"/>
    </vehicle>
    <vehicle id="5.15" type="car" depart="28961.26">
        <route edges="-308 -304"/>
    </vehicle>
    <vehicle id="4.36" type="car" depart="28965.29">
        <route edges="-280 -307 -328 -305"/>
    </vehicle>
    <vehicle id="3.8" type="car" depart="28965.51">
        <route edges="-324 -293 -299"/>
    </vehicle>
    <vehicle id="4.37" type="car" depart="28967.03">
        <route edges="-280 -307 -327 -281 -315 -323"/>
    </vehicle>
    <vehicle id="4.38" type="car" depart="28967.48">
        <route edges="-280 -307 -327 -281 -313 -284 -329"/>
    </vehicle>
    <vehicle id="2.22" type="car" depart="28969.36">
        <route edges="-312 -293 -297 -288 -286 -302 -321 -300 -285 -289"/>
    </vehicle>
    <vehicle id="4.39" type="car" depart="28970.39">
        <route edges="-280 -307 -329"/>
    </vehicle>
    <vehicle id="10.7" type="car" depart="28972.09">
        <route edges="-318 -281 -314"/>
    </vehicle>
    <vehicle id="4.40" type="car" depart="28972.43">
        <route edges="-280 -307 -328 -304"/>
    </vehicle>
    <vehicle id="3.9" type="car" depart="28973.31">
        <route edges="-324 -293 -297 -289"/>
    </vehicle>
    <vehicle id="2.23" type="car" depart="28973.85">
        <route edges="-312 -293 -299"/>
    </vehicle>
    <vehicle id="4.41" type="car" depart="28976.20">
        <route edges="-280 -307 -327 -281 -314"/>
    </vehicle>
    <vehicle id="5.16" type="car" depart="28976.28">
        <route edges="-308 -307 -329"/>
    </vehicle>
    <vehicle id="4.42" type="car" depart="28976.58">
        <route edges="-280 -307 -329"/>
    </vehicle>
    <vehicle id="1.0" type="car" depart="28976.99">
        <route edges="-309 -296"/>
    </vehicle>
    <vehicle id="5.17" type="car" depart="28977.11">
        <route edges="-308 -307 -327 -281 -315 -321 -300 -285 -290 -298 -295"/>
    </vehicle>
    <vehicle id="4.43" type="car" depart="28978.38">
        <route edges="-280 -307 -329"/>
    </vehicle>
    <vehicle id="7.7" type="car" depart="28978.46">
        <route edges="-319 -300 -287"/>
    </vehicle>
    <vehicle id="4.44" type="car" depart="28985.80">
        <route edges="-280 -307 -329"/>
    </vehicle>
    <vehicle id="2.24" type="car" depart="28986.87">
        <route edges="-312 -293 -298 -294"/>
    </vehicle>
    <vehicle id="4.45" type="car" depart="28989.23">
        <route edges="-280 -307 -327 -281 -314"/>
    </vehicle>
    <vehicle id="4.46" type="car" depart="28992.73">
        <route edges="-280 -307 -329"/>
    </vehicle>
    <vehicle id="2.25" type="car" depart="28994.16">
        <route edges="-312 -293 -299"/>
    </vehicle>
    <vehicle id="5.18" type="car" depart="28994.63">
        <route edges="-308 -307 -327 -281 -315 -321 -300 -285 -290 -297 -288 -286 -301"/>
    </vehicle>
    <vehicle id="2.26" type="car" depart="28994.90">
        <route edges="-312 -293 -299"/>
    </vehicle>
    <vehicle id="6.7" type="car" depart="28996.49">
        <route edges="-326 -307 -327 -281 -313 -284 -329"/>
    </vehicle>
    <vehicle id="10.8" type="car" depart="28999.43">
        <route edges="-318 -281 -315 -323"/>
    </vehicle>
    <vehicle id="2.27" type="car" depart="29000.18">
        <route edges="-312 -293 -299"/>
    </vehicle>
    <vehicle id="7.8" type="car" depart="29001.28">
        <route edges="-319 -300 -285 -290 -298 -295"/>
    </vehicle>
    <vehicle id="1.1" type="car" depart="29004.61">
        <route edges="-309 -295"/>
    </vehicle>
    <vehicle id="4.47" type="car" depart="29004.69">
        <route edges="-280 -307 -327 -281 -315 -321 -300 -285 -290 -299"/>
    </vehicle>
    <vehicle id="6.8" type="car" depart="29007.76">
        <route edges="-326 -305"/>
    </vehicle>
    <vehicle id="4.48" type="car" depart="29009.86">
        <route edges="-280 -307 -329"/>
    </vehicle>
    <vehicle id="6.9" type="car" depart="29011.32">
        <route edges="-326 -307 -329"/>
    </vehicle>
    <vehicle id="7.9" type="car" depart="29012.92">
        <route edges="-319 -302 -323"/>
    </vehicle>
    <vehicle id="7.10" type="car" depart="29013.28">
        <route edges="-319 -302 -323"/>
    </vehicle>
    <vehicle id="1.2" type="car" depart="29014.54">
        <route edges="-309 -293 -298 -295"/>
    </vehicle>
    <vehicle id="7.11" type="car" depart="29017.27">
        <route edges="-319 -303"/>
    </vehicle>
    <vehicle id="4.49" type="car" depart="29018.51">
        <route edges="-280 -307 -327 -282"/>
    </vehicle>
    <vehicle id="9.3" type="car" depart="29020.61">
        <route edges="-317 -284 -329"/>
    </vehicle>
    <vehicle id="4.50" type="car" depart="29022.00">
        <route edges="-280 -306"/>
    </vehicle>
    <vehicle id="6.10" type="car" depart="29022.28">
        <route edges="-326 -307 -327 -281 -313 -284 -329"/>
    </vehicle>
    <vehicle id="5.19" type="car" depart="29024.86">
        <route edges="-308 -304"/>
    </vehicle>
    <vehicle id="4.51" type="car" depart="29027.87">
        <route edges="-280 -306"/>
    </vehicle>
    <vehicle id="6.11" type="car" depart="29031.72">
        <route edges="-326 -305"/>
    </vehicle>
    <vehicle id="4.52" type="car" depart="29032.09">
        <route edges="-280 -307 -329"/>
    </vehicle>
    <vehicle id="2.28" type="car" depart="29033.07">
        <route edges="-312 -293 -299"/>
    </vehicle>
    <vehicle id="4.53" type="car" depart="29035.34">
        <route edges="-280 -307 -327 -281 -315 -323"/>
    </vehicle>
    <vehicle id="5.20" type="car" depart="29035.42">
        <route edges="-308 -307 -327 -281 -314"/>
    </vehicle>
    <vehicle id="6.12" type="car" depart="29036.20">
        <route edges="-326 -307 -329"/>
    </vehicle>
    <vehicle id="6.13" type="car" depart="29039.93">
        <route edges="-326 -305"/>
    </vehicle>
    <vehicle id="4.54" type="car" depart="29040.88">
        <route edges="-280 -307 -328 -304"/>
    </vehicle>
    <vehicle id="4.55" type="car" depart="29043.52">
        <route edges="-280 -307 -327 -281 -314"/>
    </vehicle>
    <vehicle id="4.56" type="car" depart="29044.76">
        <route edges="-280 -307 -327 -281 -314"/>
    </vehicle>
    <vehicle id="3.10" type="car" depart="29046.62">
        <route edges="-324 -293 -297 -288 -286 -302 -322 -313 -283"/>
    </vehicle>
    <vehicle id="2.29" type="car" depart="29048.01">
        <route edges="-312 -293 -298 -295"/>
    </vehicle>
    <vehicle id="4.57" type="car" depart="29048.37">
        <route edges="-280 -307 -327 -281 -314"/>
    </vehicle>
    <vehicle id="4.58" type="car" depart="29050.56">
        <route edges="-280 -307 -328 -305"/>
    </vehicle>
    <vehicle id="2.30" type="car" depart="29050.79">
        <route edges="-312 -293 -298 -295"/>
    </vehicle>
    <vehicle id="2.31" type="car" depart="29051.30">
        <route edges="-312 -293 -298 -295"/>
    </vehicle>
    <vehicle id="2.32" type="car" depart="29052.65">
        <route edges="-312 -293 -299"/>
    </vehicle>
    <vehicle id="10.9" type="car" depart="29054.27">
        <route edges="-318 -284 -329"/>
    </vehicle>
    <vehicle id="4.59" type="car" depart="29055.18">
        <route edges="-280 -307 -329"/>
    </vehicle>
    <vehicle id="2.33" type="car" depart="29056.21">
        <route edges="-312 -293 -299"/>
    </vehicle>
    <vehicle id="4.60" type="car" depart="29056.66">
        <route edges="-280 -307 -329"/>
    </vehicle>
    <vehicle id="4.61" type="car" depart="29060.57">
        <route edges="-280 -307 -327 -281 -314"/>
    </vehicle>
    <vehicle id="3.11" type="car" depart="29064.41">
        <route edges="-324 -293 -299"/>
    </vehicle>
    <vehicle id="5.21" type="car" depart="29068.48">
        <route edges="-308 -306"/>
    </vehicle>
    <vehicle id="5.22" type="car" depart="29070.74">
        <route edges="-308 -304"/>
    </vehicle>
    <vehicle id="2.34" type="car" depart="29074.09">
        <route edges="-312 -296"/>
    </vehicle>
    <vehicle id="2.35" type="car" depart="29074.26">
        <route edges="-312 -293 -299"/>
    </vehicle>
    <vehicle id="2.36" type="car" depart="29075.90">
        <route edges="-312 -293 -299"/>
    </vehicle>
    <vehicle id="2.37" type="car" depart="29076.07">
        <route edges="-312 -293 -297 -288 -286 -302 -321 -300 -285 -290 -299"/>
    </vehicle>
    <vehicle id="2.38" type="car" depart="29076.12">
        <route edges="-312 -293 -297 -289"/>
    </vehicle>
    <vehicle id="5.23" type="car" depart="29076.46">
        <route edges="-308 -306"/>
    </vehicle>
    <vehicle id="6.14" type="car" depart="29077.23">
        <route edges="-326 -305"/>
    </vehicle>
    <vehicle id="6.15" type="car" depart="29079.07">
        <route edges="-326 -307 -327 -281 -314"/>
    </vehicle>
    <vehicle id="2.39" type="car" depart="29080.64">
        <route edges="-312 -293 -297 -289"/>
    </vehicle>
    <vehicle id="10.10" type="car" depart="29087.06">
        <route edges="-318 -281 -314"/>
    </vehicle>
    <vehicle id="4.62" type="car" depart="29087.85">
        <route edges="-280 -307 -328 -304"/>
    </vehicle>
    <vehicle id="7.12" type="car" depart="29089.22">
        <route edges="-319 -300 -285 -290 -299"/>
    </vehicle>
    <vehicle id="2.40" type="car" depart="29090.41">
        <route edges="-312 -293 -298 -295"/>
    </vehicle>
    <vehicle id="4.63" type="car" depart="29090.98">
        <route edges="-280 -307 -327 -281 -313 -284 -329"/>
    </vehicle>
    <vehicle id="4.64" type="car" depart="29092.83">
        <route edges="-280 -307 -327 -281 -314"/>
    </vehicle>
    <vehicle id="5.24" type="car" depart="29094.91">
        <route edges="-308 -306"/>
    </vehicle>
    <vehicle id="4.65" type="car" depart="29098.63">
        <route edges="-280 -307 -327 -281 -314"/>
    </vehicle>
    <vehicle id="4.66" type="car" depart="29098.85">
        <route edges="-280 -307 -329"/>
    </vehicle>
    <vehicle id="8.1" type="car" depart="29099.18">
        <route edges="-325 -301"/>
    </vehicle>
    <vehicle id="3.12" type="car" depart="29099.39">
        <route edges="-324 -293 -297 -288 -286 -302 -322 -314"/>
    </vehicle>
    <vehicle id="6.16" type="car" depart="29099.43">
        <route edges="-326 -305"/>
    </vehicle>
    <vehicle id="2.41" type="car" depart="29101.15">
        <route edges="-312 -293 -297 -288 -286 -302 -321 -300 -287"/>
    </vehicle>
    <vehicle id="6.17" type="car" depart="29101.25">
        <route edges="-326 -307 -327 -283"/>
    </vehicle>
    <vehicle id="5.25" type="car" depart="29101.46">
        <route edges="-308 -306"/>
    </vehicle>
    <vehicle id="10.11" type="car" depart="29103.26">
        <route edges="-318 -281 -314"/>
    </vehicle>
    <vehicle id="4.67" type="car" depart="29103.91">
        <route edges="-280 -307 -327 -281 -314"/>
    </vehicle>
    <vehicle id="5.26" type="car" depart="29105.38">
        <route edges="-308 -307 -327 -281 -313 -284 -329"/>
    </vehicle>
    <vehicle id="4.68" type="car" depart="29105.64">
        <route edges="-280 -307 -327 -281 -314"/>
    </vehicle>
    <vehicle id="4.69" type="car" depart="29105.87">
        <route edges="-280 -307 -328 -304"/>
    </vehicle>
    <vehicle id="6.18" type="car" depart="29106.03">
        <route edges="-326 -305"/>
    </vehicle>
    <vehicle id="4.70" type="car" depart="29108.98">
        <route edges="-280 -306"/>
    </vehicle>
    <vehicle id="10.12" type="car" depart="29109.13">
        <route edges="-318 -281 -315 -323"/>
    </vehicle>
    <vehicle id="4.71" type="car" depart="29109.84">
        <route edges="-280 -307 -327 -281 -313 -284 -328 -304"/>
    </vehicle>
    <vehicle id="2.42" type="car" depart="29110.66">
        <route edges="-312 -293 -297 -288 -286 -302 -322 -313 -284 -329"/>
    </vehicle>
    <vehicle id="1.3" type="car" depart="29111.90">
        <route edges="-309 -293 -297 -289"/>
    </vehicle>
    <vehicle id="2.43" type="car" depart="29112.20">
        <route edges="-312 -293 -299"/>
    </vehicle>
    <vehicle id="3.13" type="car" depart="29114.33">
        <route edges="-324 -293 -297 -288 -287"/>
    </vehicle>
    <vehicle id="9.4" type="car" depart="29114.97">
        <route edges="-317 -284 -328 -304"/>
    </vehicle>
    <vehicle id="2.44" type="car" depart="29115.76">
        <route edges="-312 -293 -299"/>
    </vehicle>
    <vehicle id="4.72" type="car" depart="29117.14">
        <route edges="-280 -307 -329"/>
    </vehicle>
    <vehicle id="5.27" type="car" depart="29117.34">
        <route edges="-308 -307 -328 -305"/>
    </vehicle>
    <vehicle id="4.73" type="car" depart="29117.54">
        <route edges="-280 -307 -328 -305"/>
    </vehicle>
    <vehicle id="2.45" type="car" depart="29117.95">
        <route edges="-312 -293 -299"/>
    </vehicle>
    <vehicle id="5.28" type="car" depart="29118.03">
        <route edges="-308 -306"/>
    </vehicle>
    <vehicle id="9.5" type="car" depart="29118.33">
        <route edges="-317 -283"/>
    </vehicle>
    <vehicle id="6.19" type="car" depart="29119.20">
        <route edges="-326 -307 -327 -281 -314"/>
    </vehicle>
    <vehicle id="4.74" type="car" depart="29120.63">
        <route edges="-280 -307 -329"/>
    </vehicle>
    <vehicle id="4.75" type="car" depart="29122.04">
        <route edges="-280 -306"/>
    </vehicle>
    <vehicle id="9.6" type="car" depart="29123.18">
        <route edges="-317 -281 -313 -283"/>
    </vehicle>
    <vehicle id="2.46" type="car" depart="29123.32">
        <route edges="-312 -293 -297 -288 -286 -302 -322 -313 -284 -329"/>
    </vehicle>
    <vehicle id="5.29" type="car" depart="29123.68">
        <route edges="-308 -307 -327 -281 -314"/>
    </vehicle>
    <vehicle id="2.47" type="car" depart="29124.34">
        <route edges="-312 -293 -297 -288 -286 -302 -322 -313 -284 -328 -304"/>
    </vehicle>
    <vehicle id="2.48" type="car" depart="29124.71">
        <route edges="-312 -293 -299"/>
    </vehicle>
    <vehicle id="2.49" type="car" depart="29125.09">
        <route edges="-312 -293 -299"/>
    </vehicle>
    <vehicle id="5.30" type="car" depart="29125.63">
        <route edges="-308 -306"/>
    </vehicle>
    <vehicle id="5.31" type="car" depart="29127.26">
        <route edges="-308 -307 -329"/>
    </vehicle>
    <vehicle id="4.76" type="car" depart="29132.79">
        <route edges="-280 -307 -329"/>
    </vehicle>
    <vehicle id="6.20" type="car" depart="29133.18">
        <route edges="-326 -305"/>
    </vehicle>
    <vehicle id="2.50" type="car" depart="29136.22">
        <route edges="-312 -293 -298 -295"/>
    </vehicle>
    <vehicle id="5.32" type="car" depart="29137.12">
        <route edges="-308 -307 -327 -281 -315 -323"/>
    </vehicle>
    <vehicle id="2.51" type="car" depart="29137.36">
        <route edges="-312 -293 -297 -288 -286 -302 -322 -315 -323"/>
    </vehicle>
    <vehicle id="2.52" type="car" depart="29140.70">
        <route edges="-312 -293 -297 -288 -286 -302 -322 -313 -284 -329"/>
    </vehicle>
    <vehicle id="4.77" type="car" depart="29144.14">
        <route edges="-280 -307 -327 -281 -315 -323"/>
    </vehicle>
    <vehicle id="2.53" type="car" depart="29148.64">
        <route edges="-312 -293 -299"/>
    </vehicle>
    <vehicle id="5.33" type="car" depart="29148.79">
        <route edges="-308 -307 -329"/>
    </vehicle>
    <vehicle id="2.54" type="car" depart="29149.83">
        <route edges="-312 -293 -298 -296"/>
    </vehicle>
    <vehicle id="5.34" type="car" depart="29151.94">
        <route edges="-308 -307 -327 -281 -314"/>
    </vehicle>
    <vehicle id="5.35" type="car" depart="29151.94">
        <route edges="-308 -304"/>
    </vehicle>
    <vehicle id="2.55" type="car" depart="29152.19">
        <route edges="-312 -293 -297 -288 -287"/>
    </vehicle>
    <vehicle id="4.78" type="car" depart="29152.45">
        <route edges="-280 -307 -328 -304"/>
    </vehicle>
    <vehicle id="2.56" type="car" depart="29153.84">
        <route edges="-312 -293 -297 -288 -286 -302 -322 -315 -323"/>
    </vehicle>
    <vehicle id="4.79" type="car" depart="29154.56">
        <route edges="-280 -307 -327 -281 -314"/>
    </vehicle>
    <vehicle id="6.21" type="car" depart="29156.50">
        <route edges="-326 -307 -327 -281 -314"/>
    </vehicle>
    <vehicle id="4.80" type="car" depart="29157.02">
        <route edges="-280 -307 -329"/>
    </vehicle>
    <vehicle id="6.22" type="car" depart="29158.39">
        <route edges="-326 -305"/>
    </vehicle>
    <vehicle id="10.13" type="car" depart="29163.10">
        <route edges="-318 -282"/>
    </vehicle>
    <vehicle id="10.14" type="car" depart="29164.49">
        <route edges="-318 -282"/>
    </vehicle>
    <vehicle id="4.81" type="car" depart="29167.05">
        <route edges="-280 -307 -327 -281 -314"/>
    </vehicle>